/*---------------------------------------------------------------------------*\
| =========                 |                                                 |
| \\      /  F ield         | OpenFOAM: The Open Source CFD Toolbox           |
|  \\    /   O peration     | Version:  dev                                   |
|   \\  /    A nd           | Web:      www.OpenFOAM.org                      |
|    \\/     M anipulation  |                                                 |
\*---------------------------------------------------------------------------*/
Build  : dev-8f45162c6c8a
Exec   : fireFoam
Date   : May 17 2016
Time   : 20:17:16
Host   : "master"
PID    : 18825
Case   : /fmhome/meredithk/fireFoam-dev/fireFoam/cases/uniformSamplingSprinklerInjection
nProcs : 1
sigFpe : Enabling floating point exception trapping (FOAM_SIGFPE).
fileModificationChecking : Monitoring run-time modified files using timeStampMaster
allowSystemOperations : Allowing user-supplied system call operations

// * * * * * * * * * * * * * * * * * * * * * * * * * * * * * * * * * * * * * //
Create time

Create mesh for time = 0


PIMPLE: Operating solver in PISO mode

Creating combustion model

Selecting combustion model eddyDissipationModel<psiThermoCombustion,gasHThermoPhysics>
Selecting thermodynamics package 
{
    type            hePsiThermo;
    mixture         singleStepReactingMixture;
    transport       sutherland;
    thermo          janaf;
    energy          sensibleEnthalpy;
    equationOfState perfectGas;
    specie          specie;
}

Selecting chemistryReader foamChemistryReader
Fuel heat of combustion :5.00312e+07
stoichiometric air-fuel ratio :17.1204
stoichiometric oxygen-fuel ratio :3.98918
Maximum products mass concentrations:
    H2O: 0.123944
    CO2: 0.151392
    N2: 0.724664
Combustion mode: explicit
Reading thermophysical properties

Creating component thermo properties:
    multi-component carrier - 5 species
    liquids - 1 components
    solids - 0 components
Creating field rho


Reading field U

Reading/calculating face flux field phi

No MRF models present

Creating turbulence model

Selecting turbulence model type LES
Selecting LES turbulence model kEqn
Selecting LES delta type cubeRootVol
kEqnCoeffs
{
    C               0.03;
    Prt             1;
    Ce              1.048;
    Ck              0.094;
}


Reading g

Reading hRef
Calculating field g.h


Reading pRef
DICPCG:  Solving for ph_rgh, Initial residual = 1, Final residual = 0.00716506, No Iterations 13
Hydrostatic pressure variation of internalField (gMax-gMin): 0.0387043
DICPCG:  Solving for ph_rgh, Initial residual = 0.00225562, Final residual = 1.49861e-05, No Iterations 18
Hydrostatic pressure variation of internalField (gMax-gMin): 0.0391894
DICPCG:  Solving for ph_rgh, Initial residual = 1.46805e-05, Final residual = 8.32714e-07, No Iterations 7
Hydrostatic pressure variation of internalField (gMax-gMin): 0.0391888
DICPCG:  Solving for ph_rgh, Initial residual = 8.31164e-07, Final residual = 8.31164e-07, No Iterations 0
Hydrostatic pressure variation of internalField (gMax-gMin): 0.0391888
DICPCG:  Solving for ph_rgh, Initial residual = 8.31163e-07, Final residual = 8.31163e-07, No Iterations 0
Hydrostatic pressure variation of internalField (gMax-gMin): 0.0391888
Creating field dpdt

stoichiometric mixture fraction is = 0.0551866
Creating field kinetic energy K

No finite volume options present


Constructing reacting cloud
Constructing particle forces
    Selecting particle force sphereDrag
    Selecting particle force gravity
Constructing cloud functions
    Selecting cloud function facePostProcessing of type facePostProcessing
        sampleFaces1 faces: 400
        sampleFaces2 faces: 400
    Selecting cloud function particleCollectorFmg of type particleCollectorFmg
Constructing particle injection models
Creating injector: uniformSamplingSprinklerInjection
Selecting injection model uniformSamplingSprinklerInjection
    Constructing 3-D injection
centralCoreAngle: 90
Reading sprinkler injection lookup table data
tableDirectory_: table_K200_120gpm
radius 0.254
idealFlowRate 7.59584 L/s 
factor: 668766
orificeDiameter: 0.0180439
Q: 455.751
pressure_: 5.06549
kFactor_: 202.496
uJet: 29.7048
momentumEfficiency: 0.8
We: 218702
dv50: 0.00056905
Selecting dispersion model none
Selecting patch interaction model standardWallInteraction
Selecting stochastic collision model none
Selecting surface film model none
Selecting U integration scheme Euler
Selecting heat transfer model none
Selecting T integration scheme analytical
Selecting composition model singlePhaseMixture
Selecting phase change model none

Constructing surface film model
Selecting surfaceFilmModel none
    Selecting region model functions
    none
Creating pyrolysis model
Selecting pyrolysisModel none
Selecting radiationModel none
Courant Number mean: 0 max: 0

Starting time loop

fieldAverage fieldAverage1:
    Starting averaging at time 0

Courant Number mean: 0 max: 0
Time = 0.02


Solving 3-D cloud reactingCloud1

Cloud: reactingCloud1 injector: uniformSamplingSprinklerInjection
    Added 500 new parcels

Cloud: reactingCloud1
    Current number of parcels       = 500
    Current mass in system          = 0.151917
    Linear momentum                 = (-0.207559 -1.26024 -0.0664133)
   |Linear momentum|                = 1.27894
    Linear kinetic energy           = 20.3886
    uniformSamplingSprinklerInjection:
        number of parcels added     = 500
        mass introduced             = 0.151917
    Parcel fate (number, mass)
      - escape                      = 0, 0
      - stick                       = 0, 0
    Temperature min/max             = 300, 300
    Mass transfer phase change      = 0

diagonal:  Solving for rho, Initial residual = 0, Final residual = 0, No Iterations 0
PIMPLE: iteration 1
smoothSolver:  Solving for Ux, Initial residual = 1, Final residual = 7.79791e-10, No Iterations 1
smoothSolver:  Solving for Uy, Initial residual = 1, Final residual = 1.05779e-09, No Iterations 1
smoothSolver:  Solving for Uz, Initial residual = 1, Final residual = 7.88865e-10, No Iterations 1
smoothSolver:  Solving for O2, Initial residual = 0.0033359, Final residual = 0.00317798, No Iterations 10
smoothSolver:  Solving for H2O, Initial residual = 0, Final residual = 0, No Iterations 0
smoothSolver:  Solving for CH4, Initial residual = 0, Final residual = 0, No Iterations 0
smoothSolver:  Solving for CO2, Initial residual = 0, Final residual = 0, No Iterations 0
      O2	min/ave/max  =	     0.23301	     0.23301	     0.23301
     H2O	min/ave/max  =	           0	           0	           0
     CH4	min/ave/max  =	           0	           0	           0
     CO2	min/ave/max  =	           0	           0	           0
      N2	min/ave/max  =	     0.76699	     0.76699	     0.76699
smoothSolver:  Solving for h, Initial residual = 0.89329, Final residual = 5.5499e-10, No Iterations 1
min/max(T) = 298.15, 298.15
DICPCG:  Solving for p_rgh, Initial residual = 0.38304, Final residual = 0.0031111, No Iterations 10
diagonal:  Solving for rho, Initial residual = 0, Final residual = 0, No Iterations 0
time step continuity errors : sum local = 7.0064e-08, global = -1.314e-08, cumulative = -1.314e-08
DICPCG:  Solving for p_rgh, Initial residual = 0.0024702, Final residual = 9.3284e-07, No Iterations 13
diagonal:  Solving for rho, Initial residual = 0, Final residual = 0, No Iterations 0
time step continuity errors : sum local = 2.6777e-11, global = 6.0035e-13, cumulative = -1.314e-08
smoothSolver:  Solving for k, Initial residual = 1, Final residual = 6.1608e-13, No Iterations 2
ExecutionTime = 0.47 s  ClockTime = 0 s

Courant Number mean: 1.5574e-05 max: 0.0024719
Time = 0.04


Solving 3-D cloud reactingCloud1

Cloud: reactingCloud1 injector: uniformSamplingSprinklerInjection
    Added 500 new parcels

Cloud: reactingCloud1
    Current number of parcels       = 1000
    Current mass in system          = 0.30383
    Linear momentum                 = (-0.31396 -2.2393 -0.064103)
   |Linear momentum|                = 2.2621
    Linear kinetic energy           = 32.888
    uniformSamplingSprinklerInjection:
        number of parcels added     = 1000
        mass introduced             = 0.30383
    Parcel fate (number, mass)
      - escape                      = 0, 0
      - stick                       = 0, 0
    Temperature min/max             = 300, 300
    Mass transfer phase change      = 0

diagonal:  Solving for rho, Initial residual = 0, Final residual = 0, No Iterations 0
PIMPLE: iteration 1
smoothSolver:  Solving for Ux, Initial residual = 0.35798, Final residual = 1.0595e-07, No Iterations 1
smoothSolver:  Solving for Uy, Initial residual = 0.33986, Final residual = 1.1698e-07, No Iterations 1
smoothSolver:  Solving for Uz, Initial residual = 0.35908, Final residual = 9.1613e-08, No Iterations 1
smoothSolver:  Solving for O2, Initial residual = 0.0024135, Final residual = 0.0015295, No Iterations 10
smoothSolver:  Solving for H2O, Initial residual = 0, Final residual = 0, No Iterations 0
smoothSolver:  Solving for CH4, Initial residual = 0, Final residual = 0, No Iterations 0
smoothSolver:  Solving for CO2, Initial residual = 0, Final residual = 0, No Iterations 0
      O2	min/ave/max  =	     0.23301	     0.23301	     0.23301
     H2O	min/ave/max  =	           0	           0	           0
     CH4	min/ave/max  =	           0	           0	           0
     CO2	min/ave/max  =	           0	           0	           0
      N2	min/ave/max  =	     0.76699	     0.76699	     0.76699
smoothSolver:  Solving for h, Initial residual = 1, Final residual = 6.17e-15, No Iterations 2
min/max(T) = 298.15, 298.15
DICPCG:  Solving for p_rgh, Initial residual = 0.20467, Final residual = 0.0013634, No Iterations 10
diagonal:  Solving for rho, Initial residual = 0, Final residual = 0, No Iterations 0
time step continuity errors : sum local = 4.8842e-08, global = -9.3437e-09, cumulative = -2.2483e-08
DICPCG:  Solving for p_rgh, Initial residual = 0.0010339, Final residual = 9.5433e-07, No Iterations 12
diagonal:  Solving for rho, Initial residual = 0, Final residual = 0, No Iterations 0
time step continuity errors : sum local = 4.8777e-11, global = 1.1474e-12, cumulative = -2.2482e-08
smoothSolver:  Solving for k, Initial residual = 0.68392, Final residual = 3.2074e-12, No Iterations 2
ExecutionTime = 0.6 s  ClockTime = 0 s

Courant Number mean: 4.0581e-05 max: 0.0067024
Time = 0.06


Solving 3-D cloud reactingCloud1

Cloud: reactingCloud1 injector: uniformSamplingSprinklerInjection
    Added 500 new parcels

Cloud: reactingCloud1
    Current number of parcels       = 1500
    Current mass in system          = 0.45575
    Linear momentum                 = (-0.19477 -3.0614 0.016912)
   |Linear momentum|                = 3.0676
    Linear kinetic energy           = 42.596
    uniformSamplingSprinklerInjection:
        number of parcels added     = 1500
        mass introduced             = 0.45575
    Parcel fate (number, mass)
      - escape                      = 0, 0
      - stick                       = 0, 0
    Temperature min/max             = 300, 300
    Mass transfer phase change      = 0

diagonal:  Solving for rho, Initial residual = 0, Final residual = 0, No Iterations 0
PIMPLE: iteration 1
smoothSolver:  Solving for Ux, Initial residual = 0.23988, Final residual = 3.0871e-07, No Iterations 1
smoothSolver:  Solving for Uy, Initial residual = 0.20329, Final residual = 3.7447e-07, No Iterations 1
smoothSolver:  Solving for Uz, Initial residual = 0.24032, Final residual = 2.31e-07, No Iterations 1
smoothSolver:  Solving for O2, Initial residual = 0.002445, Final residual = 0.0015331, No Iterations 10
smoothSolver:  Solving for H2O, Initial residual = 0, Final residual = 0, No Iterations 0
smoothSolver:  Solving for CH4, Initial residual = 0, Final residual = 0, No Iterations 0
smoothSolver:  Solving for CO2, Initial residual = 0, Final residual = 0, No Iterations 0
      O2	min/ave/max  =	     0.23301	     0.23301	     0.23301
     H2O	min/ave/max  =	           0	           0	           0
     CH4	min/ave/max  =	           0	           0	           0
     CO2	min/ave/max  =	           0	           0	           0
      N2	min/ave/max  =	     0.76699	     0.76699	     0.76699
smoothSolver:  Solving for h, Initial residual = 0.98088, Final residual = 9.4245e-14, No Iterations 2
min/max(T) = 298.15, 298.15
DICPCG:  Solving for p_rgh, Initial residual = 0.094199, Final residual = 0.00087746, No Iterations 8
diagonal:  Solving for rho, Initial residual = 0, Final residual = 0, No Iterations 0
time step continuity errors : sum local = 4.8203e-08, global = 3.4035e-09, cumulative = -1.9079e-08
DICPCG:  Solving for p_rgh, Initial residual = 0.00086645, Final residual = 6.0969e-07, No Iterations 13
diagonal:  Solving for rho, Initial residual = 0, Final residual = 0, No Iterations 0
time step continuity errors : sum local = 3.6725e-11, global = 6.6873e-12, cumulative = -1.9072e-08
smoothSolver:  Solving for k, Initial residual = 0.3972, Final residual = 1.0907e-11, No Iterations 2
ExecutionTime = 0.73 s  ClockTime = 0 s

Courant Number mean: 6.6879e-05 max: 0.0097973
Time = 0.08


Solving 3-D cloud reactingCloud1

Cloud: reactingCloud1 injector: uniformSamplingSprinklerInjection
    Added 500 new parcels

Cloud: reactingCloud1
    Current number of parcels       = 2000
    Current mass in system          = 0.60767
    Linear momentum                 = (-0.18447 -3.878 0.00089332)
   |Linear momentum|                = 3.8824
    Linear kinetic energy           = 50.065
    uniformSamplingSprinklerInjection:
        number of parcels added     = 2000
        mass introduced             = 0.60767
    Parcel fate (number, mass)
      - escape                      = 0, 0
      - stick                       = 0, 0
    Temperature min/max             = 300, 300
    Mass transfer phase change      = 0

diagonal:  Solving for rho, Initial residual = 0, Final residual = 0, No Iterations 0
PIMPLE: iteration 1
smoothSolver:  Solving for Ux, Initial residual = 0.16661, Final residual = 4.7703e-07, No Iterations 1
smoothSolver:  Solving for Uy, Initial residual = 0.14638, Final residual = 6.9005e-07, No Iterations 1
smoothSolver:  Solving for Uz, Initial residual = 0.16796, Final residual = 3.3065e-07, No Iterations 1
smoothSolver:  Solving for O2, Initial residual = 0.0024038, Final residual = 0.0015602, No Iterations 10
smoothSolver:  Solving for H2O, Initial residual = 0, Final residual = 0, No Iterations 0
smoothSolver:  Solving for CH4, Initial residual = 0, Final residual = 0, No Iterations 0
smoothSolver:  Solving for CO2, Initial residual = 0, Final residual = 0, No Iterations 0
      O2	min/ave/max  =	     0.23301	     0.23301	     0.23301
     H2O	min/ave/max  =	           0	           0	           0
     CH4	min/ave/max  =	           0	           0	           0
     CO2	min/ave/max  =	           0	           0	           0
      N2	min/ave/max  =	     0.76699	     0.76699	     0.76699
smoothSolver:  Solving for h, Initial residual = 0.16873, Final residual = 1.1481e-12, No Iterations 2
min/max(T) = 298.15, 298.15
DICPCG:  Solving for p_rgh, Initial residual = 0.062514, Final residual = 0.00049203, No Iterations 9
diagonal:  Solving for rho, Initial residual = 0, Final residual = 0, No Iterations 0
time step continuity errors : sum local = 3.1218e-08, global = -9.3654e-10, cumulative = -2.0009e-08
DICPCG:  Solving for p_rgh, Initial residual = 0.00051609, Final residual = 8.4163e-07, No Iterations 12
diagonal:  Solving for rho, Initial residual = 0, Final residual = 0, No Iterations 0
time step continuity errors : sum local = 5.7307e-11, global = 7.6358e-13, cumulative = -2.0008e-08
smoothSolver:  Solving for k, Initial residual = 0.26534, Final residual = 3.3393e-11, No Iterations 2
ExecutionTime = 0.87 s  ClockTime = 1 s

Courant Number mean: 9.6244e-05 max: 0.01319
Time = 0.1


Solving 3-D cloud reactingCloud1

Cloud: reactingCloud1 injector: uniformSamplingSprinklerInjection
    Added 500 new parcels

Cloud: reactingCloud1
    Current number of parcels       = 2500
    Current mass in system          = 0.75958
    Linear momentum                 = (-0.1214 -4.6213 0.095465)
   |Linear momentum|                = 4.6239
    Linear kinetic energy           = 56.096
    uniformSamplingSprinklerInjection:
        number of parcels added     = 2500
        mass introduced             = 0.75958
    Parcel fate (number, mass)
      - escape                      = 0, 0
      - stick                       = 0, 0
    Temperature min/max             = 300, 300
    Mass transfer phase change      = 0

diagonal:  Solving for rho, Initial residual = 0, Final residual = 0, No Iterations 0
PIMPLE: iteration 1
smoothSolver:  Solving for Ux, Initial residual = 0.12802, Final residual = 5.8987e-07, No Iterations 1
smoothSolver:  Solving for Uy, Initial residual = 0.11552, Final residual = 2.4589e-11, No Iterations 2
smoothSolver:  Solving for Uz, Initial residual = 0.13137, Final residual = 4.5104e-07, No Iterations 1
smoothSolver:  Solving for O2, Initial residual = 0.0024467, Final residual = 0.0015485, No Iterations 10
smoothSolver:  Solving for H2O, Initial residual = 0, Final residual = 0, No Iterations 0
smoothSolver:  Solving for CH4, Initial residual = 0, Final residual = 0, No Iterations 0
smoothSolver:  Solving for CO2, Initial residual = 0, Final residual = 0, No Iterations 0
      O2	min/ave/max  =	     0.23301	     0.23301	     0.23301
     H2O	min/ave/max  =	           0	           0	           0
     CH4	min/ave/max  =	           0	           0	           0
     CO2	min/ave/max  =	           0	           0	           0
      N2	min/ave/max  =	     0.76699	     0.76699	     0.76699
smoothSolver:  Solving for h, Initial residual = 0.10254, Final residual = 2.8554e-13, No Iterations 2
min/max(T) = 298.15, 298.15
DICPCG:  Solving for p_rgh, Initial residual = 0.03965, Final residual = 0.00021558, No Iterations 10
diagonal:  Solving for rho, Initial residual = 0, Final residual = 0, No Iterations 0
time step continuity errors : sum local = 1.4992e-08, global = -3.0471e-09, cumulative = -2.3055e-08
DICPCG:  Solving for p_rgh, Initial residual = 0.00023335, Final residual = 4.7145e-07, No Iterations 11
diagonal:  Solving for rho, Initial residual = 0, Final residual = 0, No Iterations 0
time step continuity errors : sum local = 3.4688e-11, global = 4.8601e-12, cumulative = -2.305e-08
smoothSolver:  Solving for k, Initial residual = 0.19825, Final residual = 6.6135e-11, No Iterations 2
ExecutionTime = 1 s  ClockTime = 1 s

Courant Number mean: 0.00012803 max: 0.016734
Time = 0.12


Solving 3-D cloud reactingCloud1

Cloud: reactingCloud1 injector: uniformSamplingSprinklerInjection
    Added 500 new parcels

Cloud: reactingCloud1
    Current number of parcels       = 3000
    Current mass in system          = 0.9115
    Linear momentum                 = (-0.11623 -5.2643 0.077493)
   |Linear momentum|                = 5.2662
    Linear kinetic energy           = 60.119
    uniformSamplingSprinklerInjection:
        number of parcels added     = 3000
        mass introduced             = 0.9115
    Parcel fate (number, mass)
      - escape                      = 0, 0
      - stick                       = 0, 0
    Temperature min/max             = 300, 300
    Mass transfer phase change      = 0

diagonal:  Solving for rho, Initial residual = 0, Final residual = 0, No Iterations 0
PIMPLE: iteration 1
smoothSolver:  Solving for Ux, Initial residual = 0.11346, Final residual = 9.3196e-07, No Iterations 1
smoothSolver:  Solving for Uy, Initial residual = 0.093926, Final residual = 5.0172e-11, No Iterations 2
smoothSolver:  Solving for Uz, Initial residual = 0.11231, Final residual = 6.4788e-07, No Iterations 1
smoothSolver:  Solving for O2, Initial residual = 0.0024431, Final residual = 0.001527, No Iterations 10
smoothSolver:  Solving for H2O, Initial residual = 0, Final residual = 0, No Iterations 0
smoothSolver:  Solving for CH4, Initial residual = 0, Final residual = 0, No Iterations 0
smoothSolver:  Solving for CO2, Initial residual = 0, Final residual = 0, No Iterations 0
      O2	min/ave/max  =	     0.23301	     0.23301	     0.23301
     H2O	min/ave/max  =	           0	           0	           0
     CH4	min/ave/max  =	           0	           0	           0
     CO2	min/ave/max  =	           0	           0	           0
      N2	min/ave/max  =	     0.76699	     0.76699	     0.76699
smoothSolver:  Solving for h, Initial residual = 0.11756, Final residual = 5.2615e-13, No Iterations 2
min/max(T) = 298.15, 298.15
DICPCG:  Solving for p_rgh, Initial residual = 0.044525, Final residual = 0.00022367, No Iterations 9
diagonal:  Solving for rho, Initial residual = 0, Final residual = 0, No Iterations 0
time step continuity errors : sum local = 1.7098e-08, global = 6.5049e-10, cumulative = -2.24e-08
DICPCG:  Solving for p_rgh, Initial residual = 0.0002963, Final residual = 5.4801e-07, No Iterations 12
diagonal:  Solving for rho, Initial residual = 0, Final residual = 0, No Iterations 0
time step continuity errors : sum local = 4.42e-11, global = -1.2218e-12, cumulative = -2.2401e-08
smoothSolver:  Solving for k, Initial residual = 0.16454, Final residual = 1.314e-10, No Iterations 2
ExecutionTime = 1.11 s  ClockTime = 1 s

Courant Number mean: 0.00016194 max: 0.021137
Time = 0.14


Solving 3-D cloud reactingCloud1

Cloud: reactingCloud1 injector: uniformSamplingSprinklerInjection
    Added 500 new parcels

Cloud: reactingCloud1
    Current number of parcels       = 3500
    Current mass in system          = 1.0634
    Linear momentum                 = (-0.099938 -5.8615 0.034107)
   |Linear momentum|                = 5.8624
    Linear kinetic energy           = 64.02
    uniformSamplingSprinklerInjection:
        number of parcels added     = 3500
        mass introduced             = 1.0634
    Parcel fate (number, mass)
      - escape                      = 0, 0
      - stick                       = 0, 0
    Temperature min/max             = 300, 300
    Mass transfer phase change      = 0

diagonal:  Solving for rho, Initial residual = 0, Final residual = 0, No Iterations 0
PIMPLE: iteration 1
smoothSolver:  Solving for Ux, Initial residual = 0.094391, Final residual = 5.1777e-11, No Iterations 2
smoothSolver:  Solving for Uy, Initial residual = 0.079914, Final residual = 1.0305e-10, No Iterations 2
smoothSolver:  Solving for Uz, Initial residual = 0.09518, Final residual = 7.2377e-07, No Iterations 1
smoothSolver:  Solving for O2, Initial residual = 0.0024046, Final residual = 0.0015654, No Iterations 10
smoothSolver:  Solving for H2O, Initial residual = 0, Final residual = 0, No Iterations 0
smoothSolver:  Solving for CH4, Initial residual = 0, Final residual = 0, No Iterations 0
smoothSolver:  Solving for CO2, Initial residual = 0, Final residual = 0, No Iterations 0
      O2	min/ave/max  =	     0.23301	     0.23301	     0.23301
     H2O	min/ave/max  =	           0	           0	           0
     CH4	min/ave/max  =	           0	           0	           0
     CO2	min/ave/max  =	           0	           0	           0
      N2	min/ave/max  =	     0.76699	     0.76699	     0.76699
smoothSolver:  Solving for h, Initial residual = 0.083084, Final residual = 1.6499e-12, No Iterations 2
min/max(T) = 298.15, 298.15
DICPCG:  Solving for p_rgh, Initial residual = 0.032155, Final residual = 0.00031955, No Iterations 9
diagonal:  Solving for rho, Initial residual = 0, Final residual = 0, No Iterations 0
time step continuity errors : sum local = 2.6237e-08, global = -3.1916e-09, cumulative = -2.5592e-08
DICPCG:  Solving for p_rgh, Initial residual = 0.00032288, Final residual = 6.6214e-07, No Iterations 12
diagonal:  Solving for rho, Initial residual = 0, Final residual = 0, No Iterations 0
time step continuity errors : sum local = 5.6706e-11, global = -3.2025e-12, cumulative = -2.5596e-08
smoothSolver:  Solving for k, Initial residual = 0.14229, Final residual = 2.0844e-10, No Iterations 2
ExecutionTime = 1.22 s  ClockTime = 1 s

Courant Number mean: 0.00019783 max: 0.024455
Time = 0.16


Solving 3-D cloud reactingCloud1

Cloud: reactingCloud1 injector: uniformSamplingSprinklerInjection
    Added 500 new parcels

Cloud: reactingCloud1
    Current number of parcels       = 4000
    Current mass in system          = 1.2153
    Linear momentum                 = (-0.12415 -6.3894 0.0084217)
   |Linear momentum|                = 6.3906
    Linear kinetic energy           = 67.801
    uniformSamplingSprinklerInjection:
        number of parcels added     = 4000
        mass introduced             = 1.2153
    Parcel fate (number, mass)
      - escape                      = 0, 0
      - stick                       = 0, 0
    Temperature min/max             = 300, 300
    Mass transfer phase change      = 0

diagonal:  Solving for rho, Initial residual = 0, Final residual = 0, No Iterations 0
PIMPLE: iteration 1
smoothSolver:  Solving for Ux, Initial residual = 0.083509, Final residual = 8.4883e-11, No Iterations 2
smoothSolver:  Solving for Uy, Initial residual = 0.065514, Final residual = 1.5307e-10, No Iterations 2
smoothSolver:  Solving for Uz, Initial residual = 0.082984, Final residual = 8.7628e-07, No Iterations 1
smoothSolver:  Solving for O2, Initial residual = 0.0024576, Final residual = 0.0015951, No Iterations 10
smoothSolver:  Solving for H2O, Initial residual = 0, Final residual = 0, No Iterations 0
smoothSolver:  Solving for CH4, Initial residual = 0, Final residual = 0, No Iterations 0
smoothSolver:  Solving for CO2, Initial residual = 0, Final residual = 0, No Iterations 0
      O2	min/ave/max  =	     0.23301	     0.23301	     0.23301
     H2O	min/ave/max  =	           0	           0	           0
     CH4	min/ave/max  =	           0	           0	           0
     CO2	min/ave/max  =	           0	           0	           0
      N2	min/ave/max  =	     0.76699	     0.76699	     0.76699
smoothSolver:  Solving for h, Initial residual = 0.069258, Final residual = 1.0561e-12, No Iterations 2
min/max(T) = 298.15, 298.15
DICPCG:  Solving for p_rgh, Initial residual = 0.030886, Final residual = 0.00026885, No Iterations 10
diagonal:  Solving for rho, Initial residual = 0, Final residual = 0, No Iterations 0
time step continuity errors : sum local = 2.3341e-08, global = 6.1802e-10, cumulative = -2.4978e-08
DICPCG:  Solving for p_rgh, Initial residual = 0.0003203, Final residual = 8.9732e-07, No Iterations 11
diagonal:  Solving for rho, Initial residual = 0, Final residual = 0, No Iterations 0
time step continuity errors : sum local = 7.7079e-11, global = -2.1655e-12, cumulative = -2.498e-08
smoothSolver:  Solving for k, Initial residual = 0.1254, Final residual = 2.8909e-10, No Iterations 2
ExecutionTime = 1.34 s  ClockTime = 1 s

Courant Number mean: 0.00023176 max: 0.027365
Time = 0.18


Solving 3-D cloud reactingCloud1

Cloud: reactingCloud1 injector: uniformSamplingSprinklerInjection
    Added 500 new parcels

Cloud: reactingCloud1
    Current number of parcels       = 4500
    Current mass in system          = 1.3673
    Linear momentum                 = (-0.13261 -6.9564 -0.011206)
   |Linear momentum|                = 6.9576
    Linear kinetic energy           = 70.909
    uniformSamplingSprinklerInjection:
        number of parcels added     = 4500
        mass introduced             = 1.3673
    Parcel fate (number, mass)
      - escape                      = 0, 0
      - stick                       = 0, 0
    Temperature min/max             = 300, 300
    Mass transfer phase change      = 0

diagonal:  Solving for rho, Initial residual = 0, Final residual = 0, No Iterations 0
PIMPLE: iteration 1
smoothSolver:  Solving for Ux, Initial residual = 0.070282, Final residual = 1.2132e-10, No Iterations 2
smoothSolver:  Solving for Uy, Initial residual = 0.055348, Final residual = 2.239e-10, No Iterations 2
smoothSolver:  Solving for Uz, Initial residual = 0.069341, Final residual = 8.1939e-11, No Iterations 2
smoothSolver:  Solving for O2, Initial residual = 0.0024979, Final residual = 0.001556, No Iterations 10
smoothSolver:  Solving for H2O, Initial residual = 0, Final residual = 0, No Iterations 0
smoothSolver:  Solving for CH4, Initial residual = 0, Final residual = 0, No Iterations 0
smoothSolver:  Solving for CO2, Initial residual = 0, Final residual = 0, No Iterations 0
      O2	min/ave/max  =	     0.23301	     0.23301	     0.23301
     H2O	min/ave/max  =	           0	           0	           0
     CH4	min/ave/max  =	           0	           0	           0
     CO2	min/ave/max  =	           0	           0	           0
      N2	min/ave/max  =	     0.76699	     0.76699	     0.76699
smoothSolver:  Solving for h, Initial residual = 0.052308, Final residual = 2.0402e-12, No Iterations 2
min/max(T) = 298.15, 298.15
DICPCG:  Solving for p_rgh, Initial residual = 0.027612, Final residual = 0.00022281, No Iterations 6
diagonal:  Solving for rho, Initial residual = 0, Final residual = 0, No Iterations 0
time step continuity errors : sum local = 1.9297e-08, global = -2.2708e-09, cumulative = -2.7251e-08
DICPCG:  Solving for p_rgh, Initial residual = 0.00026903, Final residual = 9.7736e-07, No Iterations 9
diagonal:  Solving for rho, Initial residual = 0, Final residual = 0, No Iterations 0
time step continuity errors : sum local = 8.5121e-11, global = -2.1668e-11, cumulative = -2.7272e-08
smoothSolver:  Solving for k, Initial residual = 0.11397, Final residual = 3.932e-10, No Iterations 2
ExecutionTime = 1.48 s  ClockTime = 1 s

Courant Number mean: 0.00026612 max: 0.030371
Time = 0.2


Solving 3-D cloud reactingCloud1

Cloud: reactingCloud1 injector: uniformSamplingSprinklerInjection
    Added 500 new parcels

Cloud: reactingCloud1
    Current number of parcels       = 5000
    Current mass in system          = 1.5192
    Linear momentum                 = (-0.1417 -7.4213 -0.050949)
   |Linear momentum|                = 7.4228
    Linear kinetic energy           = 73.507
    uniformSamplingSprinklerInjection:
        number of parcels added     = 5000
        mass introduced             = 1.5192
    Parcel fate (number, mass)
      - escape                      = 0, 0
      - stick                       = 0, 0
    Temperature min/max             = 300, 300
    Mass transfer phase change      = 0

diagonal:  Solving for rho, Initial residual = 0, Final residual = 0, No Iterations 0
PIMPLE: iteration 1
smoothSolver:  Solving for Ux, Initial residual = 0.062258, Final residual = 1.7209e-10, No Iterations 2
smoothSolver:  Solving for Uy, Initial residual = 0.048325, Final residual = 3.0669e-10, No Iterations 2
smoothSolver:  Solving for Uz, Initial residual = 0.062356, Final residual = 1.1756e-10, No Iterations 2
smoothSolver:  Solving for O2, Initial residual = 0.0024778, Final residual = 0.0015489, No Iterations 10
smoothSolver:  Solving for H2O, Initial residual = 0, Final residual = 0, No Iterations 0
smoothSolver:  Solving for CH4, Initial residual = 0, Final residual = 0, No Iterations 0
smoothSolver:  Solving for CO2, Initial residual = 0, Final residual = 0, No Iterations 0
      O2	min/ave/max  =	     0.23301	     0.23301	     0.23301
     H2O	min/ave/max  =	           0	           0	           0
     CH4	min/ave/max  =	           0	           0	           0
     CO2	min/ave/max  =	           0	           0	           0
      N2	min/ave/max  =	     0.76699	     0.76699	     0.76699
smoothSolver:  Solving for h, Initial residual = 0.022872, Final residual = 2.6855e-12, No Iterations 2
min/max(T) = 298.15, 298.15
DICPCG:  Solving for p_rgh, Initial residual = 0.025757, Final residual = 0.00019809, No Iterations 8
diagonal:  Solving for rho, Initial residual = 0, Final residual = 0, No Iterations 0
time step continuity errors : sum local = 1.7499e-08, global = 2.3925e-09, cumulative = -2.488e-08
DICPCG:  Solving for p_rgh, Initial residual = 0.00023752, Final residual = 6.5865e-07, No Iterations 11
diagonal:  Solving for rho, Initial residual = 0, Final residual = 0, No Iterations 0
time step continuity errors : sum local = 5.934e-11, global = 7.6954e-12, cumulative = -2.4872e-08
smoothSolver:  Solving for k, Initial residual = 0.10577, Final residual = 5.2328e-10, No Iterations 2
ExecutionTime = 1.63 s  ClockTime = 1 s

Courant Number mean: 0.00030103 max: 0.03379
Time = 0.22


Solving 3-D cloud reactingCloud1

Cloud: reactingCloud1 injector: uniformSamplingSprinklerInjection
    Added 500 new parcels

Cloud: reactingCloud1
    Current number of parcels       = 5500
    Current mass in system          = 1.6711
    Linear momentum                 = (-0.041253 -7.9052 0.036483)
   |Linear momentum|                = 7.9054
    Linear kinetic energy           = 74.978
    uniformSamplingSprinklerInjection:
        number of parcels added     = 5500
        mass introduced             = 1.6711
    Parcel fate (number, mass)
      - escape                      = 0, 0
      - stick                       = 0, 0
    Temperature min/max             = 300, 300
    Mass transfer phase change      = 0

diagonal:  Solving for rho, Initial residual = 0, Final residual = 0, No Iterations 0
PIMPLE: iteration 1
smoothSolver:  Solving for Ux, Initial residual = 0.055423, Final residual = 2.2659e-10, No Iterations 2
smoothSolver:  Solving for Uy, Initial residual = 0.044827, Final residual = 4.2824e-10, No Iterations 2
smoothSolver:  Solving for Uz, Initial residual = 0.056798, Final residual = 1.598e-10, No Iterations 2
smoothSolver:  Solving for O2, Initial residual = 0.002554, Final residual = 0.0015813, No Iterations 10
smoothSolver:  Solving for H2O, Initial residual = 0, Final residual = 0, No Iterations 0
smoothSolver:  Solving for CH4, Initial residual = 0, Final residual = 0, No Iterations 0
smoothSolver:  Solving for CO2, Initial residual = 0, Final residual = 0, No Iterations 0
      O2	min/ave/max  =	     0.23301	     0.23301	     0.23301
     H2O	min/ave/max  =	           0	           0	           0
     CH4	min/ave/max  =	           0	           0	           0
     CO2	min/ave/max  =	           0	           0	           0
      N2	min/ave/max  =	     0.76699	     0.76699	     0.76699
smoothSolver:  Solving for h, Initial residual = 0.036851, Final residual = 5.4051e-12, No Iterations 2
min/max(T) = 298.15, 298.15
DICPCG:  Solving for p_rgh, Initial residual = 0.027071, Final residual = 0.00024959, No Iterations 9
diagonal:  Solving for rho, Initial residual = 0, Final residual = 0, No Iterations 0
time step continuity errors : sum local = 2.2748e-08, global = -4.2452e-09, cumulative = -2.9117e-08
DICPCG:  Solving for p_rgh, Initial residual = 0.00029787, Final residual = 4.8599e-07, No Iterations 12
diagonal:  Solving for rho, Initial residual = 0, Final residual = 0, No Iterations 0
time step continuity errors : sum local = 4.6001e-11, global = -2.4025e-12, cumulative = -2.912e-08
smoothSolver:  Solving for k, Initial residual = 0.1, Final residual = 6.5235e-10, No Iterations 2
ExecutionTime = 1.79 s  ClockTime = 2 s

Courant Number mean: 0.00033809 max: 0.036642
Time = 0.24


Solving 3-D cloud reactingCloud1

Cloud: reactingCloud1 injector: uniformSamplingSprinklerInjection
    Added 500 new parcels

Cloud: reactingCloud1
    Current number of parcels       = 6000
    Current mass in system          = 1.823
    Linear momentum                 = (0.12106 -8.4491 0.1208)
   |Linear momentum|                = 8.4508
    Linear kinetic energy           = 77.083
    uniformSamplingSprinklerInjection:
        number of parcels added     = 6000
        mass introduced             = 1.823
    Parcel fate (number, mass)
      - escape                      = 0, 0
      - stick                       = 0, 0
    Temperature min/max             = 300, 300
    Mass transfer phase change      = 0

diagonal:  Solving for rho, Initial residual = 0, Final residual = 0, No Iterations 0
PIMPLE: iteration 1
smoothSolver:  Solving for Ux, Initial residual = 0.051382, Final residual = 3.0723e-10, No Iterations 2
smoothSolver:  Solving for Uy, Initial residual = 0.041073, Final residual = 5.4206e-10, No Iterations 2
smoothSolver:  Solving for Uz, Initial residual = 0.052583, Final residual = 1.9919e-10, No Iterations 2
smoothSolver:  Solving for O2, Initial residual = 0.0025092, Final residual = 0.0015704, No Iterations 10
smoothSolver:  Solving for H2O, Initial residual = 0, Final residual = 0, No Iterations 0
smoothSolver:  Solving for CH4, Initial residual = 0, Final residual = 0, No Iterations 0
smoothSolver:  Solving for CO2, Initial residual = 0, Final residual = 0, No Iterations 0
      O2	min/ave/max  =	     0.23301	     0.23301	     0.23301
     H2O	min/ave/max  =	           0	           0	           0
     CH4	min/ave/max  =	           0	           0	           0
     CO2	min/ave/max  =	           0	           0	           0
      N2	min/ave/max  =	     0.76699	     0.76699	     0.76699
smoothSolver:  Solving for h, Initial residual = 0.061657, Final residual = 2.7519e-11, No Iterations 2
min/max(T) = 298.15, 298.15
DICPCG:  Solving for p_rgh, Initial residual = 0.032066, Final residual = 0.00029078, No Iterations 8
diagonal:  Solving for rho, Initial residual = 0, Final residual = 0, No Iterations 0
time step continuity errors : sum local = 2.7644e-08, global = 8.882e-09, cumulative = -2.0238e-08
DICPCG:  Solving for p_rgh, Initial residual = 0.00038241, Final residual = 5.5141e-07, No Iterations 12
diagonal:  Solving for rho, Initial residual = 0, Final residual = 0, No Iterations 0
time step continuity errors : sum local = 5.2921e-11, global = 8.2228e-12, cumulative = -2.0229e-08
smoothSolver:  Solving for k, Initial residual = 0.093367, Final residual = 7.2584e-10, No Iterations 2
ExecutionTime = 1.95 s  ClockTime = 2 s

Courant Number mean: 0.00037507 max: 0.038187
Time = 0.26


Solving 3-D cloud reactingCloud1

Cloud: reactingCloud1 injector: uniformSamplingSprinklerInjection
    Added 500 new parcels

Cloud: reactingCloud1
    Current number of parcels       = 6500
    Current mass in system          = 1.9749
    Linear momentum                 = (0.040023 -8.9007 0.061711)
   |Linear momentum|                = 8.901
    Linear kinetic energy           = 77.925
    uniformSamplingSprinklerInjection:
        number of parcels added     = 6500
        mass introduced             = 1.9749
    Parcel fate (number, mass)
      - escape                      = 0, 0
      - stick                       = 0, 0
    Temperature min/max             = 300, 300
    Mass transfer phase change      = 0

diagonal:  Solving for rho, Initial residual = 0, Final residual = 0, No Iterations 0
PIMPLE: iteration 1
smoothSolver:  Solving for Ux, Initial residual = 0.047669, Final residual = 3.7575e-10, No Iterations 2
smoothSolver:  Solving for Uy, Initial residual = 0.038704, Final residual = 6.7137e-10, No Iterations 2
smoothSolver:  Solving for Uz, Initial residual = 0.049078, Final residual = 3.0604e-10, No Iterations 2
smoothSolver:  Solving for O2, Initial residual = 0.002542, Final residual = 0.0015838, No Iterations 10
smoothSolver:  Solving for H2O, Initial residual = 0, Final residual = 0, No Iterations 0
smoothSolver:  Solving for CH4, Initial residual = 0, Final residual = 0, No Iterations 0
smoothSolver:  Solving for CO2, Initial residual = 0, Final residual = 0, No Iterations 0
      O2	min/ave/max  =	     0.23301	     0.23301	     0.23301
     H2O	min/ave/max  =	           0	           0	           0
     CH4	min/ave/max  =	           0	           0	           0
     CO2	min/ave/max  =	           0	           0	           0
      N2	min/ave/max  =	     0.76699	     0.76699	     0.76699
smoothSolver:  Solving for h, Initial residual = 0.045895, Final residual = 1.2815e-11, No Iterations 2
min/max(T) = 298.15, 298.15
DICPCG:  Solving for p_rgh, Initial residual = 0.032914, Final residual = 0.00019574, No Iterations 10
diagonal:  Solving for rho, Initial residual = 0, Final residual = 0, No Iterations 0
time step continuity errors : sum local = 1.8994e-08, global = -1.6048e-09, cumulative = -2.1834e-08
DICPCG:  Solving for p_rgh, Initial residual = 0.00032957, Final residual = 6.6402e-07, No Iterations 12
diagonal:  Solving for rho, Initial residual = 0, Final residual = 0, No Iterations 0
time step continuity errors : sum local = 6.635e-11, global = -2.5503e-12, cumulative = -2.1837e-08
smoothSolver:  Solving for k, Initial residual = 0.090235, Final residual = 9.6417e-10, No Iterations 2
ExecutionTime = 2.13 s  ClockTime = 2 s

Courant Number mean: 0.00041476 max: 0.041632
Time = 0.28


Solving 3-D cloud reactingCloud1

Cloud: reactingCloud1 injector: uniformSamplingSprinklerInjection
    Added 500 new parcels

Cloud: reactingCloud1
    Current number of parcels       = 7000
    Current mass in system          = 2.1268
    Linear momentum                 = (0.01906 -9.3769 0.082663)
   |Linear momentum|                = 9.3773
    Linear kinetic energy           = 79.93
    uniformSamplingSprinklerInjection:
        number of parcels added     = 7000
        mass introduced             = 2.1268
    Parcel fate (number, mass)
      - escape                      = 0, 0
      - stick                       = 0, 0
    Temperature min/max             = 300, 300
    Mass transfer phase change      = 0

diagonal:  Solving for rho, Initial residual = 0, Final residual = 0, No Iterations 0
PIMPLE: iteration 1
smoothSolver:  Solving for Ux, Initial residual = 0.045568, Final residual = 5.1471e-10, No Iterations 2
smoothSolver:  Solving for Uy, Initial residual = 0.03444, Final residual = 7.7712e-10, No Iterations 2
smoothSolver:  Solving for Uz, Initial residual = 0.04558, Final residual = 3.7097e-10, No Iterations 2
smoothSolver:  Solving for O2, Initial residual = 0.0025503, Final residual = 0.0015742, No Iterations 10
smoothSolver:  Solving for H2O, Initial residual = 0, Final residual = 0, No Iterations 0
smoothSolver:  Solving for CH4, Initial residual = 0, Final residual = 0, No Iterations 0
smoothSolver:  Solving for CO2, Initial residual = 0, Final residual = 0, No Iterations 0
      O2	min/ave/max  =	     0.23301	     0.23301	     0.23301
     H2O	min/ave/max  =	           0	           0	           0
     CH4	min/ave/max  =	           0	           0	           0
     CO2	min/ave/max  =	           0	           0	           0
      N2	min/ave/max  =	     0.76699	     0.76699	     0.76699
smoothSolver:  Solving for h, Initial residual = 0.056601, Final residual = 3.417e-11, No Iterations 2
min/max(T) = 298.15, 298.15
DICPCG:  Solving for p_rgh, Initial residual = 0.033948, Final residual = 0.00024049, No Iterations 10
diagonal:  Solving for rho, Initial residual = 0, Final residual = 0, No Iterations 0
time step continuity errors : sum local = 2.4262e-08, global = 1.1096e-09, cumulative = -2.0727e-08
DICPCG:  Solving for p_rgh, Initial residual = 0.00037542, Final residual = 4.8584e-07, No Iterations 12
diagonal:  Solving for rho, Initial residual = 0, Final residual = 0, No Iterations 0
time step continuity errors : sum local = 4.8319e-11, global = -1.7281e-12, cumulative = -2.0729e-08
smoothSolver:  Solving for k, Initial residual = 0.085604, Final residual = 1.1126e-09, No Iterations 2
ExecutionTime = 2.29 s  ClockTime = 2 s

Courant Number mean: 0.00045219 max: 0.044344
Time = 0.3


Solving 3-D cloud reactingCloud1

Cloud: reactingCloud1 injector: uniformSamplingSprinklerInjection
    Added 500 new parcels

Cloud: reactingCloud1
    Current number of parcels       = 7500
    Current mass in system          = 2.2788
    Linear momentum                 = (-0.0092645 -9.7656 0.15055)
   |Linear momentum|                = 9.7668
    Linear kinetic energy           = 82.211
    uniformSamplingSprinklerInjection:
        number of parcels added     = 7500
        mass introduced             = 2.2788
    Parcel fate (number, mass)
      - escape                      = 0, 0
      - stick                       = 0, 0
    Temperature min/max             = 300, 300
    Mass transfer phase change      = 0

diagonal:  Solving for rho, Initial residual = 0, Final residual = 0, No Iterations 0
PIMPLE: iteration 1
smoothSolver:  Solving for Ux, Initial residual = 0.040804, Final residual = 6.2981e-10, No Iterations 2
smoothSolver:  Solving for Uy, Initial residual = 0.030477, Final residual = 9.0331e-10, No Iterations 2
smoothSolver:  Solving for Uz, Initial residual = 0.040568, Final residual = 4.3191e-10, No Iterations 2
smoothSolver:  Solving for O2, Initial residual = 0.0024527, Final residual = 0.0015796, No Iterations 10
smoothSolver:  Solving for H2O, Initial residual = 0, Final residual = 0, No Iterations 0
smoothSolver:  Solving for CH4, Initial residual = 0, Final residual = 0, No Iterations 0
smoothSolver:  Solving for CO2, Initial residual = 0, Final residual = 0, No Iterations 0
      O2	min/ave/max  =	     0.23301	     0.23301	     0.23301
     H2O	min/ave/max  =	           0	           0	           0
     CH4	min/ave/max  =	           0	           0	           0
     CO2	min/ave/max  =	           0	           0	           0
      N2	min/ave/max  =	     0.76699	     0.76699	     0.76699
smoothSolver:  Solving for h, Initial residual = 0.047596, Final residual = 7.9062e-11, No Iterations 2
min/max(T) = 298.15, 298.15
DICPCG:  Solving for p_rgh, Initial residual = 0.028094, Final residual = 0.00012687, No Iterations 10
diagonal:  Solving for rho, Initial residual = 0, Final residual = 0, No Iterations 0
time step continuity errors : sum local = 1.2636e-08, global = 1.4361e-09, cumulative = -1.9293e-08
DICPCG:  Solving for p_rgh, Initial residual = 0.00025335, Final residual = 8.9801e-07, No Iterations 10
diagonal:  Solving for rho, Initial residual = 0, Final residual = 0, No Iterations 0
time step continuity errors : sum local = 8.8071e-11, global = -8.9877e-12, cumulative = -1.9302e-08
smoothSolver:  Solving for k, Initial residual = 0.081193, Final residual = 1.218e-09, No Iterations 2
ExecutionTime = 2.49 s  ClockTime = 2 s

Courant Number mean: 0.00048842 max: 0.047093
Time = 0.32


Solving 3-D cloud reactingCloud1

Cloud: reactingCloud1 injector: uniformSamplingSprinklerInjection
    Added 500 new parcels

Cloud: reactingCloud1
    Current number of parcels       = 8000
    Current mass in system          = 2.4307
    Linear momentum                 = (-0.0044777 -10.289 0.18091)
   |Linear momentum|                = 10.291
    Linear kinetic energy           = 83.597
    uniformSamplingSprinklerInjection:
        number of parcels added     = 8000
        mass introduced             = 2.4307
    Parcel fate (number, mass)
      - escape                      = 0, 0
      - stick                       = 0, 0
    Temperature min/max             = 300, 300
    Mass transfer phase change      = 0

diagonal:  Solving for rho, Initial residual = 0, Final residual = 0, No Iterations 0
PIMPLE: iteration 1
smoothSolver:  Solving for Ux, Initial residual = 0.037758, Final residual = 8.1649e-10, No Iterations 2
smoothSolver:  Solving for Uy, Initial residual = 0.029051, Final residual = 1.0823e-09, No Iterations 2
smoothSolver:  Solving for Uz, Initial residual = 0.036997, Final residual = 5.1407e-10, No Iterations 2
smoothSolver:  Solving for O2, Initial residual = 0.0024667, Final residual = 0.0015728, No Iterations 10
smoothSolver:  Solving for H2O, Initial residual = 0, Final residual = 0, No Iterations 0
smoothSolver:  Solving for CH4, Initial residual = 0, Final residual = 0, No Iterations 0
smoothSolver:  Solving for CO2, Initial residual = 0, Final residual = 0, No Iterations 0
      O2	min/ave/max  =	     0.23301	     0.23301	     0.23301
     H2O	min/ave/max  =	           0	           0	           0
     CH4	min/ave/max  =	           0	           0	           0
     CO2	min/ave/max  =	           0	           0	           0
      N2	min/ave/max  =	     0.76699	     0.76699	     0.76699
smoothSolver:  Solving for h, Initial residual = 0.039023, Final residual = 2.2231e-10, No Iterations 2
min/max(T) = 298.15, 298.15
DICPCG:  Solving for p_rgh, Initial residual = 0.030755, Final residual = 0.00025663, No Iterations 9
diagonal:  Solving for rho, Initial residual = 0, Final residual = 0, No Iterations 0
time step continuity errors : sum local = 2.5437e-08, global = -3.0029e-09, cumulative = -2.2305e-08
DICPCG:  Solving for p_rgh, Initial residual = 0.00037295, Final residual = 6.838e-07, No Iterations 12
diagonal:  Solving for rho, Initial residual = 0, Final residual = 0, No Iterations 0
time step continuity errors : sum local = 6.997e-11, global = -3.5102e-12, cumulative = -2.2308e-08
smoothSolver:  Solving for k, Initial residual = 0.077939, Final residual = 1.381e-09, No Iterations 2
ExecutionTime = 2.74 s  ClockTime = 2 s

Courant Number mean: 0.00052736 max: 0.049593
Time = 0.34


Solving 3-D cloud reactingCloud1

Cloud: reactingCloud1 injector: uniformSamplingSprinklerInjection
    Added 500 new parcels

Cloud: reactingCloud1
    Current number of parcels       = 8500
    Current mass in system          = 2.5826
    Linear momentum                 = (0.0086759 -10.622 0.08796)
   |Linear momentum|                = 10.623
    Linear kinetic energy           = 84.196
    uniformSamplingSprinklerInjection:
        number of parcels added     = 8500
        mass introduced             = 2.5826
    Parcel fate (number, mass)
      - escape                      = 0, 0
      - stick                       = 0, 0
    Temperature min/max             = 300, 300
    Mass transfer phase change      = 0

diagonal:  Solving for rho, Initial residual = 0, Final residual = 0, No Iterations 0
PIMPLE: iteration 1
smoothSolver:  Solving for Ux, Initial residual = 0.03642, Final residual = 9.6707e-10, No Iterations 2
smoothSolver:  Solving for Uy, Initial residual = 0.027609, Final residual = 1.2221e-09, No Iterations 2
smoothSolver:  Solving for Uz, Initial residual = 0.035247, Final residual = 5.5618e-10, No Iterations 2
smoothSolver:  Solving for O2, Initial residual = 0.0024637, Final residual = 0.0015915, No Iterations 10
smoothSolver:  Solving for H2O, Initial residual = 0, Final residual = 0, No Iterations 0
smoothSolver:  Solving for CH4, Initial residual = 0, Final residual = 0, No Iterations 0
smoothSolver:  Solving for CO2, Initial residual = 0, Final residual = 0, No Iterations 0
      O2	min/ave/max  =	     0.23301	     0.23301	     0.23301
     H2O	min/ave/max  =	           0	           0	           0
     CH4	min/ave/max  =	           0	           0	           0
     CO2	min/ave/max  =	           0	           0	           0
      N2	min/ave/max  =	     0.76699	     0.76699	     0.76699
smoothSolver:  Solving for h, Initial residual = 0.051027, Final residual = 1.701e-10, No Iterations 2
min/max(T) = 298.15, 298.15
DICPCG:  Solving for p_rgh, Initial residual = 0.02968, Final residual = 0.00026073, No Iterations 8
diagonal:  Solving for rho, Initial residual = 0, Final residual = 0, No Iterations 0
time step continuity errors : sum local = 2.6844e-08, global = 9.8683e-09, cumulative = -1.244e-08
DICPCG:  Solving for p_rgh, Initial residual = 0.00038673, Final residual = 6.6421e-07, No Iterations 12
diagonal:  Solving for rho, Initial residual = 0, Final residual = 0, No Iterations 0
time step continuity errors : sum local = 6.9005e-11, global = 1.1832e-11, cumulative = -1.2428e-08
smoothSolver:  Solving for k, Initial residual = 0.074534, Final residual = 1.5237e-09, No Iterations 2
ExecutionTime = 2.94 s  ClockTime = 3 s

Courant Number mean: 0.00056636 max: 0.052555
Time = 0.36


Solving 3-D cloud reactingCloud1

Cloud: reactingCloud1 injector: uniformSamplingSprinklerInjection
    Added 500 new parcels

Cloud: reactingCloud1
    Current number of parcels       = 9000
    Current mass in system          = 2.7345
    Linear momentum                 = (-0.0062229 -11.184 0.10931)
   |Linear momentum|                = 11.184
    Linear kinetic energy           = 86.506
    uniformSamplingSprinklerInjection:
        number of parcels added     = 9000
        mass introduced             = 2.7345
    Parcel fate (number, mass)
      - escape                      = 0, 0
      - stick                       = 0, 0
    Temperature min/max             = 300, 300
    Mass transfer phase change      = 0

diagonal:  Solving for rho, Initial residual = 0, Final residual = 0, No Iterations 0
PIMPLE: iteration 1
smoothSolver:  Solving for Ux, Initial residual = 0.032254, Final residual = 8.7666e-10, No Iterations 2
smoothSolver:  Solving for Uy, Initial residual = 0.025507, Final residual = 1.2798e-09, No Iterations 2
smoothSolver:  Solving for Uz, Initial residual = 0.032927, Final residual = 6.1095e-10, No Iterations 2
smoothSolver:  Solving for O2, Initial residual = 0.0024805, Final residual = 0.0015551, No Iterations 10
smoothSolver:  Solving for H2O, Initial residual = 0, Final residual = 0, No Iterations 0
smoothSolver:  Solving for CH4, Initial residual = 0, Final residual = 0, No Iterations 0
smoothSolver:  Solving for CO2, Initial residual = 0, Final residual = 0, No Iterations 0
      O2	min/ave/max  =	     0.23301	     0.23301	     0.23301
     H2O	min/ave/max  =	           0	           0	           0
     CH4	min/ave/max  =	           0	           0	           0
     CO2	min/ave/max  =	           0	           0	           0
      N2	min/ave/max  =	     0.76699	     0.76699	     0.76699
smoothSolver:  Solving for h, Initial residual = 0.037572, Final residual = 2.8117e-10, No Iterations 2
min/max(T) = 298.15, 298.15
DICPCG:  Solving for p_rgh, Initial residual = 0.028033, Final residual = 0.00027958, No Iterations 9
diagonal:  Solving for rho, Initial residual = 0, Final residual = 0, No Iterations 0
time step continuity errors : sum local = 2.9017e-08, global = -2.4928e-09, cumulative = -1.4921e-08
DICPCG:  Solving for p_rgh, Initial residual = 0.00043994, Final residual = 8.6228e-07, No Iterations 11
diagonal:  Solving for rho, Initial residual = 0, Final residual = 0, No Iterations 0
time step continuity errors : sum local = 8.8062e-11, global = 1.5184e-11, cumulative = -1.4906e-08
smoothSolver:  Solving for k, Initial residual = 0.070085, Final residual = 1.5593e-09, No Iterations 2
ExecutionTime = 3.14 s  ClockTime = 3 s

Courant Number mean: 0.0006038 max: 0.055123
Time = 0.38


Solving 3-D cloud reactingCloud1

Cloud: reactingCloud1 injector: uniformSamplingSprinklerInjection
    Added 500 new parcels

Cloud: reactingCloud1
    Current number of parcels       = 9500
    Current mass in system          = 2.8864
    Linear momentum                 = (-0.11657 -11.534 0.10673)
   |Linear momentum|                = 11.535
    Linear kinetic energy           = 88.107
    uniformSamplingSprinklerInjection:
        number of parcels added     = 9500
        mass introduced             = 2.8864
    Parcel fate (number, mass)
      - escape                      = 0, 0
      - stick                       = 0, 0
    Temperature min/max             = 300, 300
    Mass transfer phase change      = 0

diagonal:  Solving for rho, Initial residual = 0, Final residual = 0, No Iterations 0
PIMPLE: iteration 1
smoothSolver:  Solving for Ux, Initial residual = 0.02989, Final residual = 1.0574e-09, No Iterations 2
smoothSolver:  Solving for Uy, Initial residual = 0.023585, Final residual = 1.3713e-09, No Iterations 2
smoothSolver:  Solving for Uz, Initial residual = 0.030938, Final residual = 7.629e-10, No Iterations 2
smoothSolver:  Solving for O2, Initial residual = 0.0024777, Final residual = 0.001575, No Iterations 10
smoothSolver:  Solving for H2O, Initial residual = 0, Final residual = 0, No Iterations 0
smoothSolver:  Solving for CH4, Initial residual = 0, Final residual = 0, No Iterations 0
smoothSolver:  Solving for CO2, Initial residual = 0, Final residual = 0, No Iterations 0
      O2	min/ave/max  =	     0.23301	     0.23301	     0.23301
     H2O	min/ave/max  =	           0	           0	           0
     CH4	min/ave/max  =	           0	           0	           0
     CO2	min/ave/max  =	           0	           0	           0
      N2	min/ave/max  =	     0.76699	     0.76699	     0.76699
smoothSolver:  Solving for h, Initial residual = 0.032909, Final residual = 5.2189e-10, No Iterations 2
min/max(T) = 298.14, 298.15
DICPCG:  Solving for p_rgh, Initial residual = 0.023764, Final residual = 0.00023533, No Iterations 7
diagonal:  Solving for rho, Initial residual = 0, Final residual = 0, No Iterations 0
time step continuity errors : sum local = 2.407e-08, global = -9.8701e-09, cumulative = -2.4776e-08
DICPCG:  Solving for p_rgh, Initial residual = 0.00031259, Final residual = 7.1066e-07, No Iterations 11
diagonal:  Solving for rho, Initial residual = 0, Final residual = 0, No Iterations 0
time step continuity errors : sum local = 7.2436e-11, global = -9.042e-13, cumulative = -2.4777e-08
smoothSolver:  Solving for k, Initial residual = 0.066531, Final residual = 1.6423e-09, No Iterations 2
ExecutionTime = 3.32 s  ClockTime = 3 s

Courant Number mean: 0.00064061 max: 0.057851
Time = 0.4


Solving 3-D cloud reactingCloud1

Cloud: reactingCloud1 injector: uniformSamplingSprinklerInjection
    Added 500 new parcels

Cloud: reactingCloud1
    Current number of parcels       = 10000
    Current mass in system          = 3.0383
    Linear momentum                 = (-0.080289 -12.03 0.017059)
   |Linear momentum|                = 12.03
    Linear kinetic energy           = 89.159
    uniformSamplingSprinklerInjection:
        number of parcels added     = 10000
        mass introduced             = 3.0383
    Parcel fate (number, mass)
      - escape                      = 0, 0
      - stick                       = 0, 0
    Temperature min/max             = 300, 300
    Mass transfer phase change      = 0

diagonal:  Solving for rho, Initial residual = 0, Final residual = 0, No Iterations 0
PIMPLE: iteration 1
smoothSolver:  Solving for Ux, Initial residual = 0.027897, Final residual = 1.1884e-09, No Iterations 2
smoothSolver:  Solving for Uy, Initial residual = 0.022851, Final residual = 1.6446e-09, No Iterations 2
smoothSolver:  Solving for Uz, Initial residual = 0.028922, Final residual = 8.5122e-10, No Iterations 2
smoothSolver:  Solving for O2, Initial residual = 0.0024997, Final residual = 0.001566, No Iterations 10
smoothSolver:  Solving for H2O, Initial residual = 0, Final residual = 0, No Iterations 0
smoothSolver:  Solving for CH4, Initial residual = 0, Final residual = 0, No Iterations 0
smoothSolver:  Solving for CO2, Initial residual = 0, Final residual = 0, No Iterations 0
      O2	min/ave/max  =	     0.23301	     0.23301	     0.23301
     H2O	min/ave/max  =	           0	           0	           0
     CH4	min/ave/max  =	           0	           0	           0
     CO2	min/ave/max  =	           0	           0	           0
      N2	min/ave/max  =	     0.76699	     0.76699	     0.76699
smoothSolver:  Solving for h, Initial residual = 0.022307, Final residual = 2.6461e-10, No Iterations 2
min/max(T) = 298.14, 298.15
DICPCG:  Solving for p_rgh, Initial residual = 0.027464, Final residual = 0.00025175, No Iterations 9
diagonal:  Solving for rho, Initial residual = 0, Final residual = 0, No Iterations 0
time step continuity errors : sum local = 2.5761e-08, global = -2.6249e-09, cumulative = -2.7402e-08
DICPCG:  Solving for p_rgh, Initial residual = 0.00036893, Final residual = 7.94e-07, No Iterations 12
diagonal:  Solving for rho, Initial residual = 0, Final residual = 0, No Iterations 0
time step continuity errors : sum local = 8.3286e-11, global = -1.3374e-12, cumulative = -2.7403e-08
smoothSolver:  Solving for k, Initial residual = 0.063306, Final residual = 1.7364e-09, No Iterations 2
ExecutionTime = 3.51 s  ClockTime = 3 s

Courant Number mean: 0.00067883 max: 0.060217
Time = 0.42


Solving 3-D cloud reactingCloud1

Cloud: reactingCloud1 injector: uniformSamplingSprinklerInjection
    Added 500 new parcels

Cloud: reactingCloud1
    Current number of parcels       = 10500
    Current mass in system          = 3.1903
    Linear momentum                 = (-0.069546 -12.449 0.10049)
   |Linear momentum|                = 12.45
    Linear kinetic energy           = 89.617
    uniformSamplingSprinklerInjection:
        number of parcels added     = 10500
        mass introduced             = 3.1903
    Parcel fate (number, mass)
      - escape                      = 0, 0
      - stick                       = 0, 0
    Temperature min/max             = 300, 300
    Mass transfer phase change      = 0

diagonal:  Solving for rho, Initial residual = 0, Final residual = 0, No Iterations 0
PIMPLE: iteration 1
smoothSolver:  Solving for Ux, Initial residual = 0.027618, Final residual = 1.2823e-09, No Iterations 2
smoothSolver:  Solving for Uy, Initial residual = 0.022108, Final residual = 1.7682e-09, No Iterations 2
smoothSolver:  Solving for Uz, Initial residual = 0.028343, Final residual = 1.0183e-09, No Iterations 2
smoothSolver:  Solving for O2, Initial residual = 0.0025515, Final residual = 0.00161, No Iterations 10
smoothSolver:  Solving for H2O, Initial residual = 0, Final residual = 0, No Iterations 0
smoothSolver:  Solving for CH4, Initial residual = 0, Final residual = 0, No Iterations 0
smoothSolver:  Solving for CO2, Initial residual = 0, Final residual = 0, No Iterations 0
      O2	min/ave/max  =	     0.23301	     0.23301	     0.23301
     H2O	min/ave/max  =	           0	           0	           0
     CH4	min/ave/max  =	           0	           0	           0
     CO2	min/ave/max  =	           0	           0	           0
      N2	min/ave/max  =	     0.76699	     0.76699	     0.76699
smoothSolver:  Solving for h, Initial residual = 0.040832, Final residual = 4.9113e-10, No Iterations 2
min/max(T) = 298.14, 298.15
DICPCG:  Solving for p_rgh, Initial residual = 0.028572, Final residual = 0.00024656, No Iterations 8
diagonal:  Solving for rho, Initial residual = 0, Final residual = 0, No Iterations 0
time step continuity errors : sum local = 2.6017e-08, global = 4.3627e-09, cumulative = -2.304e-08
DICPCG:  Solving for p_rgh, Initial residual = 0.00039693, Final residual = 5.7868e-07, No Iterations 12
diagonal:  Solving for rho, Initial residual = 0, Final residual = 0, No Iterations 0
time step continuity errors : sum local = 6.2067e-11, global = 1.0942e-11, cumulative = -2.3029e-08
smoothSolver:  Solving for k, Initial residual = 0.060818, Final residual = 1.8508e-09, No Iterations 2
ExecutionTime = 3.7 s  ClockTime = 3 s

Courant Number mean: 0.00071812 max: 0.061956
Time = 0.44


Solving 3-D cloud reactingCloud1

Cloud: reactingCloud1 injector: uniformSamplingSprinklerInjection
    Added 500 new parcels

Cloud: reactingCloud1
    Current number of parcels       = 11000
    Current mass in system          = 3.3422
    Linear momentum                 = (-0.090222 -12.955 0.10154)
   |Linear momentum|                = 12.956
    Linear kinetic energy           = 91.494
    uniformSamplingSprinklerInjection:
        number of parcels added     = 11000
        mass introduced             = 3.3422
    Parcel fate (number, mass)
      - escape                      = 0, 0
      - stick                       = 0, 0
    Temperature min/max             = 300, 300
    Mass transfer phase change      = 0

diagonal:  Solving for rho, Initial residual = 0, Final residual = 0, No Iterations 0
PIMPLE: iteration 1
smoothSolver:  Solving for Ux, Initial residual = 0.0265, Final residual = 1.3285e-09, No Iterations 2
smoothSolver:  Solving for Uy, Initial residual = 0.020716, Final residual = 1.7767e-09, No Iterations 2
smoothSolver:  Solving for Uz, Initial residual = 0.027257, Final residual = 1.0348e-09, No Iterations 2
smoothSolver:  Solving for O2, Initial residual = 0.0025005, Final residual = 0.001588, No Iterations 10
smoothSolver:  Solving for H2O, Initial residual = 0, Final residual = 0, No Iterations 0
smoothSolver:  Solving for CH4, Initial residual = 0, Final residual = 0, No Iterations 0
smoothSolver:  Solving for CO2, Initial residual = 0, Final residual = 0, No Iterations 0
      O2	min/ave/max  =	     0.23301	     0.23301	     0.23301
     H2O	min/ave/max  =	           0	           0	           0
     CH4	min/ave/max  =	           0	           0	           0
     CO2	min/ave/max  =	           0	           0	           0
      N2	min/ave/max  =	     0.76699	     0.76699	     0.76699
smoothSolver:  Solving for h, Initial residual = 0.033181, Final residual = 3.3084e-10, No Iterations 2
min/max(T) = 298.14, 298.15
DICPCG:  Solving for p_rgh, Initial residual = 0.026987, Final residual = 0.00016639, No Iterations 10
diagonal:  Solving for rho, Initial residual = 0, Final residual = 0, No Iterations 0
time step continuity errors : sum local = 1.7868e-08, global = -2.5913e-10, cumulative = -2.3288e-08
DICPCG:  Solving for p_rgh, Initial residual = 0.00037778, Final residual = 4.7488e-07, No Iterations 12
diagonal:  Solving for rho, Initial residual = 0, Final residual = 0, No Iterations 0
time step continuity errors : sum local = 5.0204e-11, global = -2.7393e-13, cumulative = -2.3289e-08
smoothSolver:  Solving for k, Initial residual = 0.057873, Final residual = 1.9106e-09, No Iterations 2
ExecutionTime = 3.9 s  ClockTime = 4 s

Courant Number mean: 0.00075604 max: 0.064008
Time = 0.46


Solving 3-D cloud reactingCloud1

Cloud: reactingCloud1 injector: uniformSamplingSprinklerInjection
    Added 500 new parcels

Cloud: reactingCloud1
    Current number of parcels       = 11500
    Current mass in system          = 3.4941
    Linear momentum                 = (-0.19321 -13.285 0.034928)
   |Linear momentum|                = 13.286
    Linear kinetic energy           = 92.372
    uniformSamplingSprinklerInjection:
        number of parcels added     = 11500
        mass introduced             = 3.4941
    Parcel fate (number, mass)
      - escape                      = 0, 0
      - stick                       = 0, 0
    Temperature min/max             = 300, 300
    Mass transfer phase change      = 0

diagonal:  Solving for rho, Initial residual = 0, Final residual = 0, No Iterations 0
PIMPLE: iteration 1
smoothSolver:  Solving for Ux, Initial residual = 0.025352, Final residual = 1.7232e-09, No Iterations 2
smoothSolver:  Solving for Uy, Initial residual = 0.019689, Final residual = 1.9767e-09, No Iterations 2
smoothSolver:  Solving for Uz, Initial residual = 0.025581, Final residual = 1.2047e-09, No Iterations 2
smoothSolver:  Solving for O2, Initial residual = 0.002538, Final residual = 0.0016007, No Iterations 10
smoothSolver:  Solving for H2O, Initial residual = 0, Final residual = 0, No Iterations 0
smoothSolver:  Solving for CH4, Initial residual = 0, Final residual = 0, No Iterations 0
smoothSolver:  Solving for CO2, Initial residual = 0, Final residual = 0, No Iterations 0
      O2	min/ave/max  =	     0.23301	     0.23301	     0.23301
     H2O	min/ave/max  =	           0	           0	           0
     CH4	min/ave/max  =	           0	           0	           0
     CO2	min/ave/max  =	           0	           0	           0
      N2	min/ave/max  =	     0.76699	     0.76699	     0.76699
smoothSolver:  Solving for h, Initial residual = 0.033931, Final residual = 8.3341e-10, No Iterations 2
min/max(T) = 298.14, 298.15
DICPCG:  Solving for p_rgh, Initial residual = 0.028874, Final residual = 0.00018084, No Iterations 7
diagonal:  Solving for rho, Initial residual = 0, Final residual = 0, No Iterations 0
time step continuity errors : sum local = 1.921e-08, global = 4.6516e-09, cumulative = -1.8637e-08
DICPCG:  Solving for p_rgh, Initial residual = 0.00034103, Final residual = 4.5359e-07, No Iterations 12
diagonal:  Solving for rho, Initial residual = 0, Final residual = 0, No Iterations 0
time step continuity errors : sum local = 4.8343e-11, global = 8.9248e-13, cumulative = -1.8636e-08
smoothSolver:  Solving for k, Initial residual = 0.055595, Final residual = 1.9657e-09, No Iterations 2
ExecutionTime = 4.1 s  ClockTime = 4 s

Courant Number mean: 0.00079466 max: 0.067169
Time = 0.48


Solving 3-D cloud reactingCloud1

Cloud: reactingCloud1 injector: uniformSamplingSprinklerInjection
    Added 500 new parcels

Cloud: reactingCloud1
    Current number of parcels       = 12000
    Current mass in system          = 3.646
    Linear momentum                 = (-0.011681 -13.681 0.10855)
   |Linear momentum|                = 13.681
    Linear kinetic energy           = 93.692
    uniformSamplingSprinklerInjection:
        number of parcels added     = 12000
        mass introduced             = 3.646
    Parcel fate (number, mass)
      - escape                      = 0, 0
      - stick                       = 0, 0
    Temperature min/max             = 300, 300
    Mass transfer phase change      = 0

diagonal:  Solving for rho, Initial residual = 0, Final residual = 0, No Iterations 0
PIMPLE: iteration 1
smoothSolver:  Solving for Ux, Initial residual = 0.023955, Final residual = 1.7696e-09, No Iterations 2
smoothSolver:  Solving for Uy, Initial residual = 0.018845, Final residual = 2.1039e-09, No Iterations 2
smoothSolver:  Solving for Uz, Initial residual = 0.024624, Final residual = 1.2552e-09, No Iterations 2
smoothSolver:  Solving for O2, Initial residual = 0.0024994, Final residual = 0.001591, No Iterations 10
smoothSolver:  Solving for H2O, Initial residual = 0, Final residual = 0, No Iterations 0
smoothSolver:  Solving for CH4, Initial residual = 0, Final residual = 0, No Iterations 0
smoothSolver:  Solving for CO2, Initial residual = 0, Final residual = 0, No Iterations 0
      O2	min/ave/max  =	     0.23301	     0.23301	     0.23301
     H2O	min/ave/max  =	           0	           0	           0
     CH4	min/ave/max  =	           0	           0	           0
     CO2	min/ave/max  =	           0	           0	           0
      N2	min/ave/max  =	     0.76699	     0.76699	     0.76699
smoothSolver:  Solving for h, Initial residual = 0.024988, Final residual = 5.9047e-10, No Iterations 2
min/max(T) = 298.14, 298.15
DICPCG:  Solving for p_rgh, Initial residual = 0.029485, Final residual = 0.00026507, No Iterations 7
diagonal:  Solving for rho, Initial residual = 0, Final residual = 0, No Iterations 0
time step continuity errors : sum local = 2.8263e-08, global = 4.8642e-09, cumulative = -1.3772e-08
DICPCG:  Solving for p_rgh, Initial residual = 0.00044617, Final residual = 8.3169e-07, No Iterations 12
diagonal:  Solving for rho, Initial residual = 0, Final residual = 0, No Iterations 0
time step continuity errors : sum local = 8.8413e-11, global = -1.6554e-12, cumulative = -1.3774e-08
smoothSolver:  Solving for k, Initial residual = 0.05308, Final residual = 1.7053e-09, No Iterations 2
ExecutionTime = 4.31 s  ClockTime = 4 s

Courant Number mean: 0.00083262 max: 0.068583
Time = 0.5


Solving 3-D cloud reactingCloud1

Cloud: reactingCloud1 injector: uniformSamplingSprinklerInjection
    Added 500 new parcels

Cloud: reactingCloud1
    Current number of parcels       = 12500
    Current mass in system          = 3.7979
    Linear momentum                 = (-0.19247 -14.129 0.063094)
   |Linear momentum|                = 14.131
    Linear kinetic energy           = 95.074
    uniformSamplingSprinklerInjection:
        number of parcels added     = 12500
        mass introduced             = 3.7979
    Parcel fate (number, mass)
      - escape                      = 0, 0
      - stick                       = 0, 0
    Temperature min/max             = 300, 300
    Mass transfer phase change      = 0

diagonal:  Solving for rho, Initial residual = 0, Final residual = 0, No Iterations 0
PIMPLE: iteration 1
smoothSolver:  Solving for Ux, Initial residual = 0.022779, Final residual = 1.7378e-09, No Iterations 2
smoothSolver:  Solving for Uy, Initial residual = 0.018106, Final residual = 2.1315e-09, No Iterations 2
smoothSolver:  Solving for Uz, Initial residual = 0.023042, Final residual = 1.3396e-09, No Iterations 2
smoothSolver:  Solving for O2, Initial residual = 0.0025813, Final residual = 0.0016089, No Iterations 10
smoothSolver:  Solving for H2O, Initial residual = 0, Final residual = 0, No Iterations 0
smoothSolver:  Solving for CH4, Initial residual = 0, Final residual = 0, No Iterations 0
smoothSolver:  Solving for CO2, Initial residual = 0, Final residual = 0, No Iterations 0
      O2	min/ave/max  =	     0.23301	     0.23301	     0.23301
     H2O	min/ave/max  =	           0	           0	           0
     CH4	min/ave/max  =	           0	           0	           0
     CO2	min/ave/max  =	           0	           0	           0
      N2	min/ave/max  =	     0.76699	     0.76699	     0.76699
smoothSolver:  Solving for h, Initial residual = 0.033227, Final residual = 1.0285e-09, No Iterations 2
min/max(T) = 298.14, 298.15
DICPCG:  Solving for p_rgh, Initial residual = 0.027169, Final residual = 0.00026546, No Iterations 7
diagonal:  Solving for rho, Initial residual = 0, Final residual = 0, No Iterations 0
time step continuity errors : sum local = 2.8166e-08, global = 8.2519e-10, cumulative = -1.2949e-08
DICPCG:  Solving for p_rgh, Initial residual = 0.00039771, Final residual = 6.4438e-07, No Iterations 12
diagonal:  Solving for rho, Initial residual = 0, Final residual = 0, No Iterations 0
time step continuity errors : sum local = 6.7889e-11, global = -3.3827e-13, cumulative = -1.2949e-08
smoothSolver:  Solving for k, Initial residual = 0.050885, Final residual = 1.9537e-09, No Iterations 2
ExecutionTime = 4.52 s  ClockTime = 4 s

Courant Number mean: 0.00087132 max: 0.071187
Time = 0.52


Solving 3-D cloud reactingCloud1

Cloud: reactingCloud1 injector: uniformSamplingSprinklerInjection
    Added 500 new parcels

Cloud: reactingCloud1
    Current number of parcels       = 13000
    Current mass in system          = 3.9498
    Linear momentum                 = (-0.19935 -14.55 0.091667)
   |Linear momentum|                = 14.551
    Linear kinetic energy           = 95.925
    uniformSamplingSprinklerInjection:
        number of parcels added     = 13000
        mass introduced             = 3.9498
    Parcel fate (number, mass)
      - escape                      = 0, 0
      - stick                       = 0, 0
    Temperature min/max             = 300, 300
    Mass transfer phase change      = 0

diagonal:  Solving for rho, Initial residual = 0, Final residual = 0, No Iterations 0
PIMPLE: iteration 1
smoothSolver:  Solving for Ux, Initial residual = 0.021837, Final residual = 1.6613e-09, No Iterations 2
smoothSolver:  Solving for Uy, Initial residual = 0.017268, Final residual = 2.2381e-09, No Iterations 2
smoothSolver:  Solving for Uz, Initial residual = 0.022196, Final residual = 1.5206e-09, No Iterations 2
smoothSolver:  Solving for O2, Initial residual = 0.0025324, Final residual = 0.0016276, No Iterations 10
smoothSolver:  Solving for H2O, Initial residual = 0, Final residual = 0, No Iterations 0
smoothSolver:  Solving for CH4, Initial residual = 0, Final residual = 0, No Iterations 0
smoothSolver:  Solving for CO2, Initial residual = 0, Final residual = 0, No Iterations 0
      O2	min/ave/max  =	     0.23301	     0.23301	     0.23301
     H2O	min/ave/max  =	           0	           0	           0
     CH4	min/ave/max  =	           0	           0	           0
     CO2	min/ave/max  =	           0	           0	           0
      N2	min/ave/max  =	     0.76699	     0.76699	     0.76699
smoothSolver:  Solving for h, Initial residual = 0.031889, Final residual = 3.4816e-10, No Iterations 2
min/max(T) = 298.14, 298.15
DICPCG:  Solving for p_rgh, Initial residual = 0.024983, Final residual = 0.00013645, No Iterations 7
diagonal:  Solving for rho, Initial residual = 0, Final residual = 0, No Iterations 0
time step continuity errors : sum local = 1.4395e-08, global = 6.4514e-10, cumulative = -1.2304e-08
DICPCG:  Solving for p_rgh, Initial residual = 0.00026048, Final residual = 6.9303e-07, No Iterations 11
diagonal:  Solving for rho, Initial residual = 0, Final residual = 0, No Iterations 0
time step continuity errors : sum local = 7.2999e-11, global = -9.8129e-12, cumulative = -1.2314e-08
smoothSolver:  Solving for k, Initial residual = 0.048888, Final residual = 2.2339e-09, No Iterations 2
ExecutionTime = 4.73 s  ClockTime = 4 s

Courant Number mean: 0.0009102 max: 0.073829
Time = 0.54


Solving 3-D cloud reactingCloud1

Cloud: reactingCloud1 injector: uniformSamplingSprinklerInjection
    Added 500 new parcels

Cloud: reactingCloud1
    Current number of parcels       = 13500
    Current mass in system          = 4.1018
    Linear momentum                 = (-0.090945 -14.886 0.11742)
   |Linear momentum|                = 14.886
    Linear kinetic energy           = 96.268
    uniformSamplingSprinklerInjection:
        number of parcels added     = 13500
        mass introduced             = 4.1018
    Parcel fate (number, mass)
      - escape                      = 0, 0
      - stick                       = 0, 0
    Temperature min/max             = 300, 300
    Mass transfer phase change      = 0

diagonal:  Solving for rho, Initial residual = 0, Final residual = 0, No Iterations 0
PIMPLE: iteration 1
smoothSolver:  Solving for Ux, Initial residual = 0.02109, Final residual = 2.1787e-09, No Iterations 2
smoothSolver:  Solving for Uy, Initial residual = 0.016637, Final residual = 2.4245e-09, No Iterations 2
smoothSolver:  Solving for Uz, Initial residual = 0.021335, Final residual = 1.4186e-09, No Iterations 2
smoothSolver:  Solving for O2, Initial residual = 0.0025415, Final residual = 0.0016238, No Iterations 10
smoothSolver:  Solving for H2O, Initial residual = 0, Final residual = 0, No Iterations 0
smoothSolver:  Solving for CH4, Initial residual = 0, Final residual = 0, No Iterations 0
smoothSolver:  Solving for CO2, Initial residual = 0, Final residual = 0, No Iterations 0
      O2	min/ave/max  =	     0.23301	     0.23301	     0.23301
     H2O	min/ave/max  =	           0	           0	           0
     CH4	min/ave/max  =	           0	           0	           0
     CO2	min/ave/max  =	           0	           0	           0
      N2	min/ave/max  =	     0.76699	     0.76699	     0.76699
smoothSolver:  Solving for h, Initial residual = 0.019195, Final residual = 6.0328e-10, No Iterations 2
min/max(T) = 298.14, 298.15
DICPCG:  Solving for p_rgh, Initial residual = 0.027575, Final residual = 0.00022329, No Iterations 7
diagonal:  Solving for rho, Initial residual = 0, Final residual = 0, No Iterations 0
time step continuity errors : sum local = 2.3542e-08, global = 4.8001e-10, cumulative = -1.1834e-08
DICPCG:  Solving for p_rgh, Initial residual = 0.00043673, Final residual = 9.3021e-07, No Iterations 12
diagonal:  Solving for rho, Initial residual = 0, Final residual = 0, No Iterations 0
time step continuity errors : sum local = 9.8023e-11, global = 7.4738e-14, cumulative = -1.1833e-08
smoothSolver:  Solving for k, Initial residual = 0.047065, Final residual = 2.4957e-09, No Iterations 2
ExecutionTime = 4.95 s  ClockTime = 5 s

Courant Number mean: 0.00094916 max: 0.074904
Time = 0.56


Solving 3-D cloud reactingCloud1

Cloud: reactingCloud1 injector: uniformSamplingSprinklerInjection
    Added 500 new parcels

Cloud: reactingCloud1
    Current number of parcels       = 14000
    Current mass in system          = 4.2537
    Linear momentum                 = (-0.10547 -15.37 0.13005)
   |Linear momentum|                = 15.371
    Linear kinetic energy           = 97.048
    uniformSamplingSprinklerInjection:
        number of parcels added     = 14000
        mass introduced             = 4.2537
    Parcel fate (number, mass)
      - escape                      = 0, 0
      - stick                       = 0, 0
    Temperature min/max             = 300, 300
    Mass transfer phase change      = 0

[...]
smoothSolver:  Solving for k, Initial residual = 0.0091117, Final residual = 2.5106e-11, No Iterations 3
ExecutionTime = 26.74 s  ClockTime = 28 s

Courant Number mean: 0.0033475 max: 0.13181
Time = 1.88


Solving 3-D cloud reactingCloud1

Cloud: reactingCloud1 injector: uniformSamplingSprinklerInjection
    Added 500 new parcels

Cloud: reactingCloud1
    Current number of parcels       = 43901
    Current mass in system          = 13.168
    Linear momentum                 = (0.11145 -40.145 0.1999)
   |Linear momentum|                = 40.145
    Linear kinetic energy           = 138.23
    uniformSamplingSprinklerInjection:
        number of parcels added     = 47000
        mass introduced             = 14.28
    Parcel fate (number, mass)
      - escape                      = 3099, 1.1126
      - stick                       = 0, 0
    Temperature min/max             = 300, 300
    Mass transfer phase change      = 0

diagonal:  Solving for rho, Initial residual = 0, Final residual = 0, No Iterations 0
PIMPLE: iteration 1
smoothSolver:  Solving for Ux, Initial residual = 0.010959, Final residual = 8.228e-09, No Iterations 2
smoothSolver:  Solving for Uy, Initial residual = 0.0070093, Final residual = 1.137e-08, No Iterations 2
smoothSolver:  Solving for Uz, Initial residual = 0.011153, Final residual = 1.0017e-08, No Iterations 2
smoothSolver:  Solving for O2, Initial residual = 0.0025047, Final residual = 0.0016013, No Iterations 10
smoothSolver:  Solving for H2O, Initial residual = 0, Final residual = 0, No Iterations 0
smoothSolver:  Solving for CH4, Initial residual = 0, Final residual = 0, No Iterations 0
smoothSolver:  Solving for CO2, Initial residual = 0, Final residual = 0, No Iterations 0
      O2	min/ave/max  =	     0.23301	     0.23301	     0.23301
     H2O	min/ave/max  =	           0	           0	           0
     CH4	min/ave/max  =	           0	           0	           0
     CO2	min/ave/max  =	           0	           0	           0
      N2	min/ave/max  =	     0.76699	     0.76699	     0.76699
smoothSolver:  Solving for h, Initial residual = 0.013063, Final residual = 1.3348e-09, No Iterations 2
min/max(T) = 298.14, 298.15
DICPCG:  Solving for p_rgh, Initial residual = 0.04169, Final residual = 0.00030543, No Iterations 7
diagonal:  Solving for rho, Initial residual = 0, Final residual = 0, No Iterations 0
time step continuity errors : sum local = 3.4136e-08, global = -1.5407e-08, cumulative = -7.3881e-08
DICPCG:  Solving for p_rgh, Initial residual = 0.00083608, Final residual = 9.2046e-07, No Iterations 12
diagonal:  Solving for rho, Initial residual = 0, Final residual = 0, No Iterations 0
time step continuity errors : sum local = 1.0268e-10, global = 8.8298e-13, cumulative = -7.388e-08
smoothSolver:  Solving for k, Initial residual = 0.0090186, Final residual = 2.7283e-11, No Iterations 3
ExecutionTime = 27.16 s  ClockTime = 29 s

Courant Number mean: 0.0033815 max: 0.1316
Time = 1.9


Solving 3-D cloud reactingCloud1

Cloud: reactingCloud1 injector: uniformSamplingSprinklerInjection
    Added 500 new parcels

Cloud: reactingCloud1
    Current number of parcels       = 44260
    Current mass in system          = 13.283
    Linear momentum                 = (0.084731 -40.454 0.22493)
   |Linear momentum|                = 40.455
    Linear kinetic energy           = 138.91
    uniformSamplingSprinklerInjection:
        number of parcels added     = 47500
        mass introduced             = 14.432
    Parcel fate (number, mass)
      - escape                      = 3240, 1.1487
      - stick                       = 0, 0
    Temperature min/max             = 300, 300
    Mass transfer phase change      = 0

diagonal:  Solving for rho, Initial residual = 0, Final residual = 0, No Iterations 0
PIMPLE: iteration 1
smoothSolver:  Solving for Ux, Initial residual = 0.010793, Final residual = 8.1688e-09, No Iterations 2
smoothSolver:  Solving for Uy, Initial residual = 0.0069293, Final residual = 1.0463e-08, No Iterations 2
smoothSolver:  Solving for Uz, Initial residual = 0.011025, Final residual = 1.0006e-08, No Iterations 2
smoothSolver:  Solving for O2, Initial residual = 0.0025282, Final residual = 0.0016155, No Iterations 10
smoothSolver:  Solving for H2O, Initial residual = 0, Final residual = 0, No Iterations 0
smoothSolver:  Solving for CH4, Initial residual = 0, Final residual = 0, No Iterations 0
smoothSolver:  Solving for CO2, Initial residual = 0, Final residual = 0, No Iterations 0
      O2	min/ave/max  =	     0.23301	     0.23301	     0.23301
     H2O	min/ave/max  =	           0	           0	           0
     CH4	min/ave/max  =	           0	           0	           0
     CO2	min/ave/max  =	           0	           0	           0
      N2	min/ave/max  =	     0.76699	     0.76699	     0.76699
smoothSolver:  Solving for h, Initial residual = 0.012155, Final residual = 9.4508e-10, No Iterations 2
min/max(T) = 298.14, 298.15
DICPCG:  Solving for p_rgh, Initial residual = 0.040893, Final residual = 0.00030481, No Iterations 7
diagonal:  Solving for rho, Initial residual = 0, Final residual = 0, No Iterations 0
time step continuity errors : sum local = 3.3961e-08, global = -1.348e-08, cumulative = -8.736e-08
DICPCG:  Solving for p_rgh, Initial residual = 0.00070437, Final residual = 7.656e-07, No Iterations 12
diagonal:  Solving for rho, Initial residual = 0, Final residual = 0, No Iterations 0
time step continuity errors : sum local = 8.5205e-11, global = -4.4975e-12, cumulative = -8.7364e-08
smoothSolver:  Solving for k, Initial residual = 0.0088909, Final residual = 2.9273e-11, No Iterations 3
ExecutionTime = 27.6 s  ClockTime = 29 s

Courant Number mean: 0.0034152 max: 0.13123
Time = 1.92


Solving 3-D cloud reactingCloud1

Cloud: reactingCloud1 injector: uniformSamplingSprinklerInjection
    Added 500 new parcels

Cloud: reactingCloud1
    Current number of parcels       = 44599
    Current mass in system          = 13.384
    Linear momentum                 = (0.096595 -40.669 0.21943)
   |Linear momentum|                = 40.67
    Linear kinetic energy           = 139.14
    uniformSamplingSprinklerInjection:
        number of parcels added     = 48000
        mass introduced             = 14.584
    Parcel fate (number, mass)
      - escape                      = 3401, 1.2002
      - stick                       = 0, 0
    Temperature min/max             = 300, 300
    Mass transfer phase change      = 0

diagonal:  Solving for rho, Initial residual = 0, Final residual = 0, No Iterations 0
PIMPLE: iteration 1
smoothSolver:  Solving for Ux, Initial residual = 0.010843, Final residual = 8.7023e-09, No Iterations 2
smoothSolver:  Solving for Uy, Initial residual = 0.0068894, Final residual = 1.0039e-08, No Iterations 2
smoothSolver:  Solving for Uz, Initial residual = 0.010976, Final residual = 1.0273e-08, No Iterations 2
smoothSolver:  Solving for O2, Initial residual = 0.0025324, Final residual = 0.0016041, No Iterations 10
smoothSolver:  Solving for H2O, Initial residual = 0, Final residual = 0, No Iterations 0
smoothSolver:  Solving for CH4, Initial residual = 0, Final residual = 0, No Iterations 0
smoothSolver:  Solving for CO2, Initial residual = 0, Final residual = 0, No Iterations 0
      O2	min/ave/max  =	     0.23301	     0.23301	     0.23301
     H2O	min/ave/max  =	           0	           0	           0
     CH4	min/ave/max  =	           0	           0	           0
     CO2	min/ave/max  =	           0	           0	           0
      N2	min/ave/max  =	     0.76699	     0.76699	     0.76699
smoothSolver:  Solving for h, Initial residual = 0.010565, Final residual = 1.1112e-09, No Iterations 2
min/max(T) = 298.14, 298.15
DICPCG:  Solving for p_rgh, Initial residual = 0.048314, Final residual = 0.00032788, No Iterations 6
diagonal:  Solving for rho, Initial residual = 0, Final residual = 0, No Iterations 0
time step continuity errors : sum local = 3.6522e-08, global = 3.0795e-09, cumulative = -8.4285e-08
DICPCG:  Solving for p_rgh, Initial residual = 0.0010278, Final residual = 3.9674e-07, No Iterations 14
diagonal:  Solving for rho, Initial residual = 0, Final residual = 0, No Iterations 0
time step continuity errors : sum local = 4.4422e-11, global = 2.4811e-12, cumulative = -8.4282e-08
smoothSolver:  Solving for k, Initial residual = 0.0087334, Final residual = 3.0346e-11, No Iterations 3
ExecutionTime = 28.03 s  ClockTime = 30 s

Courant Number mean: 0.0034493 max: 0.1307
Time = 1.94


Solving 3-D cloud reactingCloud1

Cloud: reactingCloud1 injector: uniformSamplingSprinklerInjection
    Added 500 new parcels

Cloud: reactingCloud1
    Current number of parcels       = 44960
    Current mass in system          = 13.489
    Linear momentum                 = (0.097935 -40.88 0.28336)
   |Linear momentum|                = 40.881
    Linear kinetic energy           = 139.13
    uniformSamplingSprinklerInjection:
        number of parcels added     = 48500
        mass introduced             = 14.736
    Parcel fate (number, mass)
      - escape                      = 3540, 1.2473
      - stick                       = 0, 0
    Temperature min/max             = 300, 300
    Mass transfer phase change      = 0

diagonal:  Solving for rho, Initial residual = 0, Final residual = 0, No Iterations 0
PIMPLE: iteration 1
smoothSolver:  Solving for Ux, Initial residual = 0.01071, Final residual = 8.8508e-09, No Iterations 2
smoothSolver:  Solving for Uy, Initial residual = 0.0066461, Final residual = 9.2326e-09, No Iterations 2
smoothSolver:  Solving for Uz, Initial residual = 0.010913, Final residual = 1.055e-08, No Iterations 2
smoothSolver:  Solving for O2, Initial residual = 0.0025522, Final residual = 0.0016109, No Iterations 10
smoothSolver:  Solving for H2O, Initial residual = 0, Final residual = 0, No Iterations 0
smoothSolver:  Solving for CH4, Initial residual = 0, Final residual = 0, No Iterations 0
smoothSolver:  Solving for CO2, Initial residual = 0, Final residual = 0, No Iterations 0
      O2	min/ave/max  =	     0.23301	     0.23301	     0.23301
     H2O	min/ave/max  =	           0	           0	           0
     CH4	min/ave/max  =	           0	           0	           0
     CO2	min/ave/max  =	           0	           0	           0
      N2	min/ave/max  =	     0.76699	     0.76699	     0.76699
smoothSolver:  Solving for h, Initial residual = 0.01208, Final residual = 1.4308e-09, No Iterations 2
min/max(T) = 298.14, 298.15
DICPCG:  Solving for p_rgh, Initial residual = 0.042846, Final residual = 0.00035297, No Iterations 7
diagonal:  Solving for rho, Initial residual = 0, Final residual = 0, No Iterations 0
time step continuity errors : sum local = 3.9498e-08, global = -1.7618e-08, cumulative = -1.019e-07
DICPCG:  Solving for p_rgh, Initial residual = 0.00084286, Final residual = 9.0332e-07, No Iterations 12
diagonal:  Solving for rho, Initial residual = 0, Final residual = 0, No Iterations 0
time step continuity errors : sum local = 1.0113e-10, global = 2.7695e-12, cumulative = -1.019e-07
smoothSolver:  Solving for k, Initial residual = 0.0085392, Final residual = 3.0587e-11, No Iterations 3
ExecutionTime = 28.46 s  ClockTime = 30 s

Courant Number mean: 0.0034826 max: 0.12997
Time = 1.96


Solving 3-D cloud reactingCloud1

Cloud: reactingCloud1 injector: uniformSamplingSprinklerInjection
    Added 500 new parcels

Cloud: reactingCloud1
    Current number of parcels       = 45315
    Current mass in system          = 13.595
    Linear momentum                 = (0.14919 -41.218 0.24816)
   |Linear momentum|                = 41.219
    Linear kinetic energy           = 140.29
    uniformSamplingSprinklerInjection:
        number of parcels added     = 49000
        mass introduced             = 14.888
    Parcel fate (number, mass)
      - escape                      = 3685, 1.2927
      - stick                       = 0, 0
    Temperature min/max             = 300, 300
    Mass transfer phase change      = 0

diagonal:  Solving for rho, Initial residual = 0, Final residual = 0, No Iterations 0
PIMPLE: iteration 1
smoothSolver:  Solving for Ux, Initial residual = 0.010792, Final residual = 9.1407e-09, No Iterations 2
smoothSolver:  Solving for Uy, Initial residual = 0.0066729, Final residual = 9.6015e-09, No Iterations 2
smoothSolver:  Solving for Uz, Initial residual = 0.010836, Final residual = 1.0426e-08, No Iterations 2
smoothSolver:  Solving for O2, Initial residual = 0.0024847, Final residual = 0.0016046, No Iterations 10
smoothSolver:  Solving for H2O, Initial residual = 0, Final residual = 0, No Iterations 0
smoothSolver:  Solving for CH4, Initial residual = 0, Final residual = 0, No Iterations 0
smoothSolver:  Solving for CO2, Initial residual = 0, Final residual = 0, No Iterations 0
      O2	min/ave/max  =	     0.23301	     0.23301	     0.23301
     H2O	min/ave/max  =	           0	           0	           0
     CH4	min/ave/max  =	           0	           0	           0
     CO2	min/ave/max  =	           0	           0	           0
      N2	min/ave/max  =	     0.76699	     0.76699	     0.76699
smoothSolver:  Solving for h, Initial residual = 0.01205, Final residual = 1.3516e-09, No Iterations 2
min/max(T) = 298.14, 298.15
DICPCG:  Solving for p_rgh, Initial residual = 0.046995, Final residual = 0.00045249, No Iterations 6
diagonal:  Solving for rho, Initial residual = 0, Final residual = 0, No Iterations 0
time step continuity errors : sum local = 5.0346e-08, global = -1.9434e-08, cumulative = -1.2133e-07
DICPCG:  Solving for p_rgh, Initial residual = 0.0010067, Final residual = 8.668e-07, No Iterations 13
diagonal:  Solving for rho, Initial residual = 0, Final residual = 0, No Iterations 0
time step continuity errors : sum local = 9.6022e-11, global = -4.2122e-12, cumulative = -1.2134e-07
smoothSolver:  Solving for k, Initial residual = 0.0083489, Final residual = 3.0643e-11, No Iterations 3
ExecutionTime = 28.89 s  ClockTime = 30 s

Courant Number mean: 0.0035165 max: 0.12933
Time = 1.98


Solving 3-D cloud reactingCloud1

Cloud: reactingCloud1 injector: uniformSamplingSprinklerInjection
    Added 500 new parcels

Cloud: reactingCloud1
    Current number of parcels       = 45662
    Current mass in system          = 13.696
    Linear momentum                 = (0.12519 -41.47 0.29209)
   |Linear momentum|                = 41.472
    Linear kinetic energy           = 141.04
    uniformSamplingSprinklerInjection:
        number of parcels added     = 49500
        mass introduced             = 15.04
    Parcel fate (number, mass)
      - escape                      = 3838, 1.3441
      - stick                       = 0, 0
    Temperature min/max             = 300, 300
    Mass transfer phase change      = 0

diagonal:  Solving for rho, Initial residual = 0, Final residual = 0, No Iterations 0
PIMPLE: iteration 1
smoothSolver:  Solving for Ux, Initial residual = 0.010675, Final residual = 9.0088e-09, No Iterations 2
smoothSolver:  Solving for Uy, Initial residual = 0.0066888, Final residual = 9.9506e-09, No Iterations 2
smoothSolver:  Solving for Uz, Initial residual = 0.010752, Final residual = 1.0418e-08, No Iterations 2
smoothSolver:  Solving for O2, Initial residual = 0.0024808, Final residual = 0.0015818, No Iterations 10
smoothSolver:  Solving for H2O, Initial residual = 0, Final residual = 0, No Iterations 0
smoothSolver:  Solving for CH4, Initial residual = 0, Final residual = 0, No Iterations 0
smoothSolver:  Solving for CO2, Initial residual = 0, Final residual = 0, No Iterations 0
      O2	min/ave/max  =	     0.23301	     0.23301	     0.23301
     H2O	min/ave/max  =	           0	           0	           0
     CH4	min/ave/max  =	           0	           0	           0
     CO2	min/ave/max  =	           0	           0	           0
      N2	min/ave/max  =	     0.76699	     0.76699	     0.76699
smoothSolver:  Solving for h, Initial residual = 0.012462, Final residual = 2.4665e-09, No Iterations 2
min/max(T) = 298.14, 298.15
DICPCG:  Solving for p_rgh, Initial residual = 0.041288, Final residual = 0.00037589, No Iterations 5
diagonal:  Solving for rho, Initial residual = 0, Final residual = 0, No Iterations 0
time step continuity errors : sum local = 4.1455e-08, global = 2.5654e-09, cumulative = -1.1877e-07
DICPCG:  Solving for p_rgh, Initial residual = 0.00078517, Final residual = 4.6835e-07, No Iterations 14
diagonal:  Solving for rho, Initial residual = 0, Final residual = 0, No Iterations 0
time step continuity errors : sum local = 5.1647e-11, global = 3.0715e-12, cumulative = -1.1877e-07
smoothSolver:  Solving for k, Initial residual = 0.0081889, Final residual = 9.6705e-09, No Iterations 2
ExecutionTime = 29.33 s  ClockTime = 31 s

Courant Number mean: 0.0035515 max: 0.1296
Time = 2


Solving 3-D cloud reactingCloud1

Cloud: reactingCloud1 injector: uniformSamplingSprinklerInjection
    Added 500 new parcels

Cloud: reactingCloud1
    Current number of parcels       = 46013
    Current mass in system          = 13.799
    Linear momentum                 = (0.09216 -41.714 0.22911)
   |Linear momentum|                = 41.715
    Linear kinetic energy           = 141.27
    uniformSamplingSprinklerInjection:
        number of parcels added     = 50000
        mass introduced             = 15.192
    Parcel fate (number, mass)
      - escape                      = 3987, 1.3928
      - stick                       = 0, 0
    Temperature min/max             = 300, 300
    Mass transfer phase change      = 0

facePostProcessing output:
    sampleFaces1: total mass = 12.679; average mass flow rate = 8.1046
    sampleFaces2: total mass = 1.6151; average mass flow rate = 1.5122

particleCollectorFmg output:
    sum(total mass) = 5.1916
    sum(total momentum) = 0.55619
    sum(average mass flow rate) = 5.1916

diagonal:  Solving for rho, Initial residual = 0, Final residual = 0, No Iterations 0
PIMPLE: iteration 1
smoothSolver:  Solving for Ux, Initial residual = 0.010766, Final residual = 9.043e-09, No Iterations 2
smoothSolver:  Solving for Uy, Initial residual = 0.0065684, Final residual = 1.0114e-08, No Iterations 2
smoothSolver:  Solving for Uz, Initial residual = 0.010638, Final residual = 1.0002e-08, No Iterations 2
smoothSolver:  Solving for O2, Initial residual = 0.0025311, Final residual = 0.0016176, No Iterations 10
smoothSolver:  Solving for H2O, Initial residual = 0, Final residual = 0, No Iterations 0
smoothSolver:  Solving for CH4, Initial residual = 0, Final residual = 0, No Iterations 0
smoothSolver:  Solving for CO2, Initial residual = 0, Final residual = 0, No Iterations 0
      O2	min/ave/max  =	     0.23301	     0.23301	     0.23301
     H2O	min/ave/max  =	           0	           0	           0
     CH4	min/ave/max  =	           0	           0	           0
     CO2	min/ave/max  =	           0	           0	           0
      N2	min/ave/max  =	     0.76699	     0.76699	     0.76699
smoothSolver:  Solving for h, Initial residual = 0.01019, Final residual = 2.6809e-09, No Iterations 2
min/max(T) = 298.14, 298.15
DICPCG:  Solving for p_rgh, Initial residual = 0.047245, Final residual = 0.00043191, No Iterations 7
diagonal:  Solving for rho, Initial residual = 0, Final residual = 0, No Iterations 0
time step continuity errors : sum local = 4.7676e-08, global = -1.9455e-08, cumulative = -1.3822e-07
DICPCG:  Solving for p_rgh, Initial residual = 0.00093638, Final residual = 9.9812e-07, No Iterations 12
diagonal:  Solving for rho, Initial residual = 0, Final residual = 0, No Iterations 0
time step continuity errors : sum local = 1.1041e-10, global = 3.965e-12, cumulative = -1.3822e-07
smoothSolver:  Solving for k, Initial residual = 0.0080772, Final residual = 8.4558e-09, No Iterations 2
ExecutionTime = 30.28 s  ClockTime = 32 s +

fieldAverage fieldAverage1:
    Reading/initialising field UMean

fieldAverage fieldAverage1 output:
    Calculating averages

    Writing average fields

    Writing average fields

End
